api/pglib_opf_case793_goc__api.m
%%%%%%%%%%%%%%%%%%%%%%%%%%%%%%%%%%%%%%%%%%%%%%%%%%%%%%%%%%%%%%%%%%%%%%%%%%%
%%%%                                                                  %%%%%
%%%%    IEEE PES Power Grid Library - Optimal Power Flow - v20.04     %%%%%
%%%%          (https://github.com/power-grid-lib/pglib-opf)           %%%%%
%%%%             Benchmark Group - Active Power Increase              %%%%%
%%%%                         12 - July - 2020                         %%%%%
%%%%                                                                  %%%%%
%%%%%%%%%%%%%%%%%%%%%%%%%%%%%%%%%%%%%%%%%%%%%%%%%%%%%%%%%%%%%%%%%%%%%%%%%%%
function mpc = pglib_opf_case793_goc__api
mpc.version = '2';
mpc.baseMVA = 100.0;

%% bus data
%	bus_i	type	Pd	Qd	Gs	Bs	area	Vm	Va	baseKV	zone	Vmax	Vmin
mpc.bus = [
	1	 1	 23.58	 6.64	 0.0	 0.0	 1	    0.99500	    0.00000	 115.0	 1	    1.06000	    0.93000;
	2	 1	 38.48	 17.95	 0.0	 15.498	 1	    0.99500	    0.00000	 115.0	 1	    1.06000	    0.93000;
	3	 1	 13.53	 2.57	 0.0	 0.0	 1	    0.99500	    0.00000	 35.0	 1	    1.06000	    0.93000;
	4	 1	 0.0	 0.0	 0.0	 0.0	 1	    0.99500	    0.00000	 115.0	 1	    1.06000	    0.93000;
	5	 1	 0.50	 -1.30	 0.0	 0.0	 1	    0.99500	    0.00000	 13.0	 1	    1.06000	    0.93000;
	6	 1	 0.0	 0.0	 0.0	 0.0	 1	    0.99500	    0.00000	 14.0	 1	    1.06000	    0.93000;
	7	 1	 10.43	 4.00	 0.0	 0.0	 1	    0.99500	    0.00000	 115.0	 1	    1.06000	    0.93000;
	8	 1	 3.25	 0.37	 0.0	 0.0	 1	    0.99500	    0.00000	 13.0	 1	    1.06000	    0.93000;
	9	 1	 20.10	 2.64	 0.0	 0.0	 1	    0.99500	    0.00000	 35.0	 1	    1.06000	    0.93000;
	10	 1	 0.0	 0.0	 0.0	 0.0	 1	    0.99500	    0.00000	 115.0	 1	    1.06000	    0.93000;
	11	 1	 0.0	 0.0	 0.0	 0.0	 1	    0.99500	    0.00000	 115.0	 1	    1.06000	    0.93000;
	12	 1	 14.94	 6.57	 0.0	 0.0	 1	    0.99500	    0.00000	 35.0	 1	    1.06000	    0.93000;
	13	 1	 12.40	 2.28	 0.0	 0.0	 1	    0.99500	    0.00000	 13.0	 1	    1.06000	    0.93000;
	15	 1	 19.93	 3.44	 0.0	 0.0	 1	    0.99500	    0.00000	 35.0	 1	    1.06000	    0.93000;
	16	 1	 0.0	 0.0	 0.0	 0.0	 1	    0.99500	    0.00000	 115.0	 1	    1.06000	    0.93000;
	17	 1	 0.0	 0.0	 0.0	 0.0160397150585	 1	    0.99500	    0.00000	 115.0	 1	    1.06000	    0.93000;
	18	 1	 0.0	 0.0	 0.0	 0.0	 1	    0.99500	    0.00000	 230.0	 1	    1.06000	    0.93000;
	19	 1	 0.0	 0.0	 0.0	 0.0	 1	    0.99500	    0.00000	 230.0	 1	    1.06000	    0.93000;
	20	 1	 13.05	 -4.15	 0.0	 0.0	 1	    0.99500	    0.00000	 13.0	 1	    1.06000	    0.93000;
	21	 1	 8.10	 -1.09	 0.0	 0.0	 1	    0.99500	    0.00000	 115.0	 1	    1.06000	    0.93000;
	22	 1	 0.0	 0.0	 0.0	 0.0	 1	    0.99500	    0.00000	 115.0	 1	    1.06000	    0.93000;
	23	 2	 0.0	 0.0	 0.0	 -120.31	 1	    0.99500	    0.00000	 115.0	 1	    1.06000	    0.93000;
	24	 1	 0.0	 0.0	 0.0	 0.00111992645637	 1	    0.99500	    0.00000	 115.0	 1	    1.06000	    0.93000;
	25	 1	 0.0	 0.0	 0.0	 0.0	 1	    0.99500	    0.00000	 14.0	 1	    1.06000	    0.93000;
	27	 1	 0.0	 0.0	 0.0	 0.0	 1	    0.99500	    0.00000	 115.0	 1	    1.06000	    0.93000;
	28	 1	 37.15	 2.96	 0.0	 -4.2418108228	 1	    0.99500	    0.00000	 35.0	 1	    1.06000	    0.93000;
	30	 1	 0.0	 0.0	 0.0	 0.0	 1	    0.99500	    0.00000	 115.0	 1	    1.06000	    0.93000;
	31	 2	 0.0	 0.0	 0.0	 0.0	 1	    0.99500	    0.00000	 230.0	 1	    1.06000	    0.93000;
	32	 1	 10.70	 1.20	 0.0	 0.0	 1	    0.99500	    0.00000	 115.0	 1	    1.06000	    0.93000;
	33	 1	 0.0	 0.0	 0.0	 0.0	 1	    0.99500	    0.00000	 230.0	 1	    1.06000	    0.93000;
	34	 1	 14.98	 8.24	 0.0	 0.0	 1	    0.99500	    0.00000	 35.0	 1	    1.06000	    0.93000;
	35	 1	 0.0	 0.0	 0.0	 0.0	 1	    0.99500	    0.00000	 230.0	 1	    1.06000	    0.93000;
	36	 1	 108.41	 -4.52	 0.0	 -4.438	 1	    0.99500	    0.00000	 230.0	 1	    1.06000	    0.93000;
	37	 1	 -8.37	 -3.33	 0.0	 0.0	 1	    0.99500	    0.00000	 230.0	 1	    1.06000	    0.93000;
	38	 1	 0.0	 0.0	 0.0	 0.0	 1	    0.99500	    0.00000	 230.0	 1	    1.06000	    0.93000;
	39	 1	 26.61	 7.17	 0.0	 0.0	 1	    0.99500	    0.00000	 35.0	 1	    1.06000	    0.93000;
	40	 1	 0.0	 0.0	 0.0	 0.0	 1	    0.99500	    0.00000	 115.0	 1	    1.06000	    0.93000;
	41	 1	 0.0	 0.0	 0.0	 0.0	 1	    0.99500	    0.00000	 230.0	 1	    1.06000	    0.93000;
	43	 2	 3.07	 0.46	 0.0	 0.0	 1	    0.99500	    0.00000	 115.0	 1	    1.06000	    0.93000;
	44	 1	 13.53	 2.30	 0.0	 0.0	 1	    0.99500	    0.00000	 115.0	 1	    1.06000	    0.93000;
	45	 1	 0.0	 0.0	 0.0	 0.0	 1	    0.99500	    0.00000	 230.0	 1	    1.06000	    0.93000;
	46	 2	 0.0	 0.0	 0.0	 0.0	 1	    0.99500	    0.00000	 230.0	 1	    1.06000	    0.93000;
	47	 2	 10.79	 -1.53	 0.0	 0.0	 1	    0.99500	    0.00000	 115.0	 1	    1.06000	    0.93000;
	49	 1	 14.98	 8.24	 0.0	 0.0	 1	    0.99500	    0.00000	 35.0	 1	    1.06000	    0.93000;
	50	 1	 0.0	 0.0	 0.0	 0.0	 1	    0.99500	    0.00000	 115.0	 1	    1.06000	    0.93000;
	51	 1	 7.67	 3.08	 0.0	 0.0	 1	    0.99500	    0.00000	 13.0	 1	    1.06000	    0.93000;
	52	 2	 0.0	 0.0	 0.0	 0.0	 1	    0.99500	    0.00000	 230.0	 1	    1.06000	    0.93000;
	53	 1	 10.71	 0.56	 0.0	 0.0	 1	    0.99500	    0.00000	 115.0	 1	    1.06000	    0.93000;
	54	 1	 14.66	 -1.11	 0.0	 -5.72431630412	 1	    0.99500	    0.00000	 35.0	 1	    1.06000	    0.93000;
	55	 2	 0.0	 0.0	 0.0	 0.0	 1	    0.99500	    0.00000	 230.0	 1	    1.06000	    0.93000;
	56	 1	 9.60	 5.95	 0.0	 0.0	 1	    0.99500	    0.00000	 35.0	 1	    1.06000	    0.93000;
	57	 1	 7.36	 -0.28	 0.0	 0.0	 1	    0.99500	    0.00000	 115.0	 1	    1.06000	    0.93000;
	58	 1	 15.10	 10.95	 0.0	 34.5917650937	 1	    0.99500	    0.00000	 115.0	 1	    1.06000	    0.93000;
	59	 2	 13.67	 5.40	 0.0	 0.0	 1	    0.99500	    0.00000	 35.0	 1	    1.06000	    0.93000;
	60	 1	 0.0	 0.0	 0.0	 0.0	 1	    0.99500	    0.00000	 115.0	 1	    1.06000	    0.93000;
	61	 1	 3.85	 -0.47	 0.0	 0.0	 1	    0.99500	    0.00000	 13.0	 1	    1.06000	    0.93000;
	62	 1	 8.00	 -0.28	 0.0	 0.0	 1	    0.99500	    0.00000	 115.0	 1	    1.06000	    0.93000;
	63	 1	 45.29	 0.09	 0.0	 0.0	 1	    0.99500	    0.00000	 230.0	 1	    1.06000	    0.93000;
	64	 1	 13.00	 7.71	 0.0	 0.0	 1	    0.99500	    0.00000	 35.0	 1	    1.06000	    0.93000;
	65	 2	 1.40	 0.61	 0.0	 0.0	 1	    0.99500	    0.00000	 14.0	 1	    1.06000	    0.93000;
	66	 1	 0.0	 0.0	 0.0	 0.0	 1	    0.99500	    0.00000	 230.0	 1	    1.06000	    0.93000;
	67	 1	 0.0	 0.0	 0.0	 24.9999281688	 1	    0.99500	    0.00000	 115.0	 1	    1.06000	    0.93000;
	68	 1	 7.22	 -0.27	 0.0	 0.0	 1	    0.99500	    0.00000	 115.0	 1	    1.06000	    0.93000;
	69	 1	 0.0	 0.0	 0.0	 0.0	 1	    0.99500	    0.00000	 230.0	 1	    1.06000	    0.93000;
	70	 1	 5.69	 -3.56	 0.0	 0.0	 1	    0.99500	    0.00000	 35.0	 1	    1.06000	    0.93000;
	71	 2	 11.54	 -3.59	 0.0	 0.0	 1	    0.99500	    0.00000	 115.0	 1	    1.06000	    0.93000;
	72	 1	 8.21	 0.36	 0.0	 0.0	 1	    0.99500	    0.00000	 115.0	 1	    1.06000	    0.93000;
	73	 1	 0.0	 0.0	 0.0	 0.0	 1	    0.99500	    0.00000	 115.0	 1	    1.06000	    0.93000;
	74	 1	 10.19	 4.89	 0.0	 0.00179881396866	 1	    0.99500	    0.00000	 115.0	 1	    1.06000	    0.93000;
	75	 1	 3.06	 -2.48	 0.0	 0.0	 1	    0.99500	    0.00000	 13.0	 1	    1.06000	    0.93000;
	76	 1	 5.48	 -0.28	 0.0	 0.0	 1	    0.99500	    0.00000	 115.0	 1	    1.06000	    0.93000;
	77	 1	 35.95	 0.43	 0.0	 0.0	 1	    0.99500	    0.00000	 35.0	 1	    1.06000	    0.93000;
	78	 1	 21.40	 3.53	 0.0	 0.0	 1	    0.99500	    0.00000	 35.0	 1	    1.06000	    0.93000;
	79	 1	 0.0	 0.0	 0.0	 0.0	 1	    0.99500	    0.00000	 230.0	 1	    1.06000	    0.93000;
	80	 1	 1.38	 0.56	 0.0	 0.0	 1	    0.99500	    0.00000	 14.0	 1	    1.06000	    0.93000;
	81	 1	 46.08	 22.08	 0.0	 21.502	 1	    0.99500	    0.00000	 115.0	 1	    1.06000	    0.93000;
	82	 1	 10.71	 0.56	 0.0	 0.0	 1	    0.99500	    0.00000	 115.0	 1	    1.06000	    0.93000;
	83	 1	 0.0	 0.0	 0.0	 0.0	 1	    0.99500	    0.00000	 115.0	 1	    1.06000	    0.93000;
	84	 1	 13.29	 0.56	 0.0	 0.0	 1	    0.99500	    0.00000	 115.0	 1	    1.06000	    0.93000;
	85	 1	 20.98	 3.93	 0.0	 0.0	 1	    0.99500	    0.00000	 115.0	 1	    1.06000	    0.93000;
	86	 2	 0.0	 0.0	 0.0	 0.0	 1	    0.99500	    0.00000	 230.0	 1	    1.06000	    0.93000;
	87	 1	 0.0	 0.0	 0.0	 0.0	 1	    0.99500	    0.00000	 230.0	 1	    1.06000	    0.93000;
	88	 1	 -0.27	 0.01	 0.0	 -1.541560956	 1	    0.99500	    0.00000	 35.0	 1	    1.06000	    0.93000;
	89	 1	 30.00	 0.02	 0.0	 0.0	 1	    0.99500	    0.00000	 35.0	 1	    1.06000	    0.93000;
	90	 2	 0.0	 0.0	 0.0	 0.0	 1	    0.99500	    0.00000	 230.0	 1	    1.06000	    0.93000;
	91	 1	 0.0	 0.0	 0.0	 0.0	 1	    0.99500	    0.00000	 115.0	 1	    1.06000	    0.93000;
	92	 1	 4.65	 -0.28	 0.0	 0.0	 1	    0.99500	    0.00000	 115.0	 1	    1.06000	    0.93000;
	93	 2	 0.0	 0.0	 0.0	 0.0	 1	    0.99500	    0.00000	 115.0	 1	    1.06000	    0.93000;
	94	 1	 3.33	 2.58	 0.0	 11.8045729003	 1	    0.99500	    0.00000	 115.0	 1	    1.06000	    0.93000;
	95	 1	 0.0	 0.0	 0.0	 0.0	 1	    0.99500	    0.00000	 345.0	 2	    1.06000	    0.93000;
	96	 1	 34.00	 40.42	 0.0	 0.0	 1	    0.99500	    0.00000	 345.0	 2	    1.06000	    0.93000;
	97	 1	 28.89	 25.99	 0.0	 0.0	 1	    0.99500	    0.00000	 345.0	 2	    1.06000	    0.93000;
	98	 1	 0.0	 0.0	 0.0	 -24.285	 1	    0.99500	    0.00000	 345.0	 2	    1.06000	    0.93000;
	99	 1	 10.74	 18.49	 0.0	 0.0	 1	    0.99500	    0.00000	 345.0	 2	    1.06000	    0.93000;
	100	 1	 12.27	 21.57	 0.0	 4.571	 1	    0.99500	    0.00000	 345.0	 2	    1.06000	    0.93000;
	101	 1	 157.68	 20.12	 0.0	 0.0	 1	    0.99500	    0.00000	 345.0	 2	    1.06000	    0.93000;
	102	 1	 1.16	 -45.89	 0.0	 -43.607	 1	    0.99500	    0.00000	 345.0	 2	    1.06000	    0.93000;
	103	 1	 0.0	 0.0	 0.0	 0.0	 1	    0.99500	    0.00000	 138.0	 2	    1.06000	    0.93000;
	104	 1	 0.0	 0.0	 0.0	 0.0	 1	    0.99500	    0.00000	 138.0	 2	    1.06000	    0.93000;
	105	 2	 6.57	 1.62	 0.0	 0.0	 1	    0.99500	    0.00000	 138.0	 2	    1.06000	    0.93000;
	106	 1	 8.41	 2.36	 0.0	 0.0	 1	    0.99500	    0.00000	 138.0	 2	    1.06000	    0.93000;
	107	 1	 0.0	 0.0	 0.0	 0.0	 1	    0.99500	    0.00000	 138.0	 2	    1.06000	    0.93000;
	108	 1	 10.03	 -13.96	 0.0	 0.0	 1	    0.99500	    0.00000	 138.0	 2	    1.06000	    0.93000;
	109	 1	 12.63	 2.22	 0.0	 0.0	 1	    0.99500	    0.00000	 138.0	 2	    1.06000	    0.93000;
	110	 1	 2.87	 0.82	 0.0	 0.0	 1	    0.99500	    0.00000	 138.0	 2	    1.06000	    0.93000;
	111	 1	 5.12	 1.46	 0.0	 0.0	 1	    0.99500	    0.00000	 138.0	 2	    1.06000	    0.93000;
	112	 1	 20.75	 5.17	 0.0	 0.0	 1	    0.99500	    0.00000	 138.0	 2	    1.06000	    0.93000;
	113	 1	 0.0	 0.0	 0.0	 0.0	 1	    0.99500	    0.00000	 138.0	 2	    1.06000	    0.93000;
	114	 1	 0.0	 0.0	 0.0	 0.0	 1	    0.99500	    0.00000	 138.0	 2	    1.06000	    0.93000;
	115	 1	 7.38	 1.78	 0.0	 0.0	 1	    0.99500	    0.00000	 138.0	 2	    1.06000	    0.93000;
	116	 1	 36.23	 21.67	 0.0	 0.0	 1	    0.99500	    0.00000	 138.0	 2	    1.06000	    0.93000;
	117	 1	 0.0	 0.0	 0.0	 0.0	 1	    0.99500	    0.00000	 138.0	 2	    1.06000	    0.93000;
	118	 1	 8.38	 2.37	 0.0	 0.0	 1	    0.99500	    0.00000	 138.0	 2	    1.06000	    0.93000;
	119	 1	 0.0	 0.0	 0.0	 0.0	 1	    0.99500	    0.00000	 138.0	 2	    1.06000	    0.93000;
	120	 1	 14.76	 3.23	 0.0	 0.0	 1	    0.99500	    0.00000	 138.0	 2	    1.06000	    0.93000;
	121	 1	 0.0	 0.0	 0.0	 0.0	 1	    0.99500	    0.00000	 138.0	 2	    1.06000	    0.93000;
	122	 1	 0.0	 0.0	 0.0	 0.0	 1	    0.99500	    0.00000	 138.0	 2	    1.06000	    0.93000;
	123	 1	 0.0	 0.0	 0.0	 0.0	 1	    0.99500	    0.00000	 138.0	 2	    1.06000	    0.93000;
	124	 1	 0.0	 0.0	 0.0	 0.0	 1	    0.99500	    0.00000	 138.0	 2	    1.06000	    0.93000;
	125	 1	 0.0	 0.0	 0.0	 0.0	 1	    0.99500	    0.00000	 138.0	 2	    1.06000	    0.93000;
	126	 1	 0.0	 0.0	 0.0	 0.0	 1	    0.99500	    0.00000	 138.0	 2	    1.06000	    0.93000;
	127	 1	 0.0	 0.0	 0.0	 0.0	 1	    0.99500	    0.00000	 138.0	 2	    1.06000	    0.93000;
	128	 1	 1.53	 0.39	 0.0	 0.0	 1	    0.99500	    0.00000	 138.0	 2	    1.06000	    0.93000;
	129	 1	 6.89	 3.19	 0.0	 0.0	 1	    0.99500	    0.00000	 138.0	 2	    1.06000	    0.93000;
	130	 1	 0.0	 0.0	 0.0	 0.0	 1	    0.99500	    0.00000	 138.0	 2	    1.06000	    0.93000;
	131	 1	 122.75	 40.05	 0.0	 0.0	 1	    0.99500	    0.00000	 138.0	 2	    1.06000	    0.93000;
	132	 1	 8.02	 1.86	 0.0	 0.0	 1	    0.99500	    0.00000	 138.0	 2	    1.06000	    0.93000;
	133	 1	 2.95	 0.62	 0.0	 -1.321	 1	    0.99500	    0.00000	 138.0	 2	    1.06000	    0.93000;
	134	 2	 81.32	 25.70	 0.0	 0.0	 1	    0.99500	    0.00000	 138.0	 2	    1.06000	    0.93000;
	135	 1	 9.21	 2.19	 0.0	 0.0	 1	    0.99500	    0.00000	 138.0	 2	    1.06000	    0.93000;
	136	 1	 4.27	 0.92	 0.0	 0.0	 1	    0.99500	    0.00000	 138.0	 2	    1.06000	    0.93000;
	137	 1	 39.04	 -9.16	 0.0	 -13.204	 1	    0.99500	    0.00000	 138.0	 2	    1.06000	    0.93000;
	138	 1	 0.66	 0.10	 0.0	 0.0	 1	    0.99500	    0.00000	 138.0	 2	    1.06000	    0.93000;
	139	 1	 0.0	 0.0	 0.0	 0.0	 1	    0.99500	    0.00000	 138.0	 2	    1.06000	    0.93000;
	140	 1	 4.27	 1.70	 0.0	 0.0	 1	    0.99500	    0.00000	 138.0	 2	    1.06000	    0.93000;
	141	 1	 8.95	 0.69	 0.0	 0.0	 1	    0.99500	    0.00000	 138.0	 2	    1.06000	    0.93000;
	142	 1	 12.46	 2.83	 0.0	 0.0	 1	    0.99500	    0.00000	 138.0	 2	    1.06000	    0.93000;
	143	 1	 0.64	 1.25	 0.0	 1.197	 1	    0.99500	    0.00000	 138.0	 2	    1.06000	    0.93000;
	144	 1	 0.0	 0.0	 0.0	 0.0	 1	    0.99500	    0.00000	 138.0	 2	    1.06000	    0.93000;
	145	 1	 79.54	 16.97	 0.0	 16.36	 1	    0.99500	    0.00000	 138.0	 2	    1.06000	    0.93000;
	146	 1	 2.45	 0.41	 0.0	 0.0	 1	    0.99500	    0.00000	 138.0	 2	    1.06000	    0.93000;
	147	 1	 1.64	 0.50	 0.0	 0.0	 1	    0.99500	    0.00000	 138.0	 2	    1.06000	    0.93000;
	148	 1	 10.02	 2.87	 0.0	 0.0	 1	    0.99500	    0.00000	 138.0	 2	    1.06000	    0.93000;
	149	 1	 9.23	 -8.41	 0.0	 -8.091	 1	    0.99500	    0.00000	 138.0	 2	    1.06000	    0.93000;
	150	 1	 7.38	 1.55	 0.0	 0.0	 1	    0.99500	    0.00000	 138.0	 2	    1.06000	    0.93000;
	151	 2	 29.01	 31.03	 0.0	 0.0	 1	    0.99500	    0.00000	 138.0	 2	    1.06000	    0.93000;
	152	 2	 10.74	 14.38	 0.0	 0.0	 1	    0.99500	    0.00000	 138.0	 2	    1.06000	    0.93000;
	153	 1	 13.95	 3.14	 0.0	 0.0	 1	    0.99500	    0.00000	 138.0	 2	    1.06000	    0.93000;
	154	 1	 0.0	 0.0	 0.0	 0.0	 1	    0.99500	    0.00000	 138.0	 2	    1.06000	    0.93000;
	155	 1	 0.0	 0.0	 0.0	 0.0	 1	    0.99500	    0.00000	 138.0	 2	    1.06000	    0.93000;
	156	 1	 0.0	 0.0	 0.0	 40.892	 1	    0.99500	    0.00000	 138.0	 2	    1.06000	    0.93000;
	157	 1	 4.51	 1.28	 0.0	 0.0	 1	    0.99500	    0.00000	 138.0	 2	    1.06000	    0.93000;
	158	 1	 0.0	 0.0	 0.0	 0.0	 1	    0.99500	    0.00000	 138.0	 2	    1.06000	    0.93000;
	159	 2	 22.33	 0.56	 0.0	 0.0	 1	    0.99500	    0.00000	 138.0	 2	    1.06000	    0.93000;
	160	 1	 17.23	 2.73	 0.0	 0.0	 1	    0.99500	    0.00000	 138.0	 2	    1.06000	    0.93000;
	161	 1	 9.79	 2.85	 0.0	 0.0	 1	    0.99500	    0.00000	 138.0	 2	    1.06000	    0.93000;
	162	 1	 12.75	 3.78	 0.0	 0.0	 1	    0.99500	    0.00000	 138.0	 2	    1.06000	    0.93000;
	163	 1	 1.30	 0.08	 0.0	 0.0	 1	    0.99500	    0.00000	 138.0	 2	    1.06000	    0.93000;
	164	 1	 0.0	 0.0	 0.0	 0.0	 1	    0.99500	    0.00000	 138.0	 2	    1.06000	    0.93000;
	165	 1	 1.01	 0.40	 0.0	 0.0	 1	    0.99500	    0.00000	 138.0	 2	    1.06000	    0.93000;
	166	 1	 0.81	 0.32	 0.0	 0.0	 1	    0.99500	    0.00000	 138.0	 2	    1.06000	    0.93000;
	167	 1	 0.0	 0.0	 0.0	 0.0	 1	    0.99500	    0.00000	 138.0	 2	    1.06000	    0.93000;
	168	 1	 15.91	 3.55	 0.0	 0.0	 1	    0.99500	    0.00000	 138.0	 2	    1.06000	    0.93000;
	169	 1	 3.94	 0.95	 0.0	 0.0	 1	    0.99500	    0.00000	 138.0	 2	    1.06000	    0.93000;
	170	 1	 0.0	 0.0	 0.0	 0.0	 1	    0.99500	    0.00000	 138.0	 2	    1.06000	    0.93000;
	171	 1	 8.21	 0.78	 0.0	 0.0	 1	    0.99500	    0.00000	 138.0	 2	    1.06000	    0.93000;
	172	 1	 0.0	 0.0	 0.0	 0.0	 1	    0.99500	    0.00000	 138.0	 2	    1.06000	    0.93000;
	173	 1	 11.14	 2.78	 0.0	 0.0	 1	    0.99500	    0.00000	 138.0	 2	    1.06000	    0.93000;
	174	 1	 0.0	 0.0	 0.0	 0.0	 1	    0.99500	    0.00000	 138.0	 2	    1.06000	    0.93000;
	175	 1	 4.59	 1.17	 0.0	 0.0	 1	    0.99500	    0.00000	 138.0	 2	    1.06000	    0.93000;
	176	 1	 9.85	 2.34	 0.0	 0.0	 1	    0.99500	    0.00000	 138.0	 2	    1.06000	    0.93000;
	177	 1	 0.0	 0.0	 0.0	 0.0	 1	    0.99500	    0.00000	 138.0	 2	    1.06000	    0.93000;
	178	 1	 0.0	 0.0	 0.0	 0.0	 1	    0.99500	    0.00000	 138.0	 2	    1.06000	    0.93000;
	179	 2	 9.19	 2.12	 0.0	 0.0	 1	    0.99500	    0.00000	 138.0	 2	    1.06000	    0.93000;
	180	 1	 0.0	 0.0	 0.0	 0.0	 1	    0.99500	    0.00000	 138.0	 2	    1.06000	    0.93000;
	181	 1	 6.97	 1.94	 0.0	 0.0	 1	    0.99500	    0.00000	 138.0	 2	    1.06000	    0.93000;
	182	 1	 6.57	 1.84	 0.0	 0.0	 1	    0.99500	    0.00000	 138.0	 2	    1.06000	    0.93000;
	183	 1	 0.0	 0.0	 0.0	 0.0	 1	    0.99500	    0.00000	 138.0	 2	    1.06000	    0.93000;
	184	 1	 5.58	 1.26	 0.0	 0.0	 1	    0.99500	    0.00000	 138.0	 2	    1.06000	    0.93000;
	185	 1	 6.55	 1.59	 0.0	 0.0	 1	    0.99500	    0.00000	 138.0	 2	    1.06000	    0.93000;
	186	 1	 0.0	 0.0	 0.0	 0.0	 1	    0.99500	    0.00000	 138.0	 2	    1.06000	    0.93000;
	187	 1	 0.0	 0.0	 0.0	 0.0	 1	    0.99500	    0.00000	 138.0	 2	    1.06000	    0.93000;
	188	 1	 1.15	 0.38	 0.0	 0.0	 1	    0.99500	    0.00000	 138.0	 2	    1.06000	    0.93000;
	189	 1	 1.96	 0.60	 0.0	 0.0	 1	    0.99500	    0.00000	 138.0	 2	    1.06000	    0.93000;
	190	 2	 0.0	 0.0	 0.0	 0.0	 1	    0.99500	    0.00000	 138.0	 2	    1.06000	    0.93000;
	191	 1	 7.06	 1.78	 0.0	 0.0	 1	    0.99500	    0.00000	 138.0	 2	    1.06000	    0.93000;
	192	 1	 0.0	 0.0	 0.0	 0.0	 1	    0.99500	    0.00000	 138.0	 2	    1.06000	    0.93000;
	193	 1	 7.06	 1.67	 0.0	 0.0	 1	    0.99500	    0.00000	 138.0	 2	    1.06000	    0.93000;
	194	 1	 18.70	 4.07	 0.0	 0.0	 1	    0.99500	    0.00000	 138.0	 2	    1.06000	    0.93000;
	195	 1	 27.12	 5.79	 0.0	 5.562	 1	    0.99500	    0.00000	 138.0	 2	    1.06000	    0.93000;
	196	 1	 0.0	 0.0	 0.0	 0.0	 1	    0.99500	    0.00000	 138.0	 2	    1.06000	    0.93000;
	197	 1	 0.0	 0.0	 0.0	 0.0	 1	    0.99500	    0.00000	 138.0	 2	    1.06000	    0.93000;
	198	 1	 5.91	 1.42	 0.0	 0.0	 1	    0.99500	    0.00000	 138.0	 2	    1.06000	    0.93000;
	199	 1	 0.0	 0.0	 0.0	 0.0	 1	    0.99500	    0.00000	 138.0	 2	    1.06000	    0.93000;
	200	 1	 8.15	 1.52	 0.0	 0.0	 1	    0.99500	    0.00000	 138.0	 2	    1.06000	    0.93000;
	201	 1	 11.39	 2.06	 0.0	 0.0	 1	    0.99500	    0.00000	 138.0	 2	    1.06000	    0.93000;
	202	 1	 3.30	 0.57	 0.0	 0.0	 1	    0.99500	    0.00000	 138.0	 2	    1.06000	    0.93000;
	203	 1	 0.0	 0.0	 0.0	 0.0	 1	    0.99500	    0.00000	 138.0	 2	    1.06000	    0.93000;
	204	 1	 18.14	 4.79	 0.0	 0.0	 1	    0.99500	    0.00000	 138.0	 2	    1.06000	    0.93000;
	205	 1	 17.20	 4.97	 0.0	 0.0	 1	    0.99500	    0.00000	 138.0	 2	    1.06000	    0.93000;
...
];

%% generator data
%	bus	Pg	Qg	Qmax	Qmin	Vg	mBase	status	Pmax	Pmin
mpc.gen = [
	6	 0.0	 0.0	 45.0	 -45.0	 0.995	 100.0	 0	 90	 14.25; % NG
	23	 399.5	 0.0	 399.0	 -399.0	 0.995	 100.0	 1	 798	 1.0; % COW
	25	 0.0	 0.0	 119.0	 -119.0	 0.995	 67.5	 0	 238	 1.0; % COW
	25	 0.0	 0.0	 41.0	 -41.0	 0.995	 67.5	 0	 81	 7.125; % NG
	31	 192.17125	 0.0	 184.0	 -184.0	 0.995	 100.0	 1	 367	 17.3425; % COW
	33	 0.0	 0.0	 19.29	 -19.29	 0.995	 57.87	 0	 27	 5.7; % PEL
	35	 0.0	 0.0	 51.0	 -51.0	 0.995	 99.38	 0	 102	 1.0; % NG
	35	 0.0	 0.0	 144.0	 -144.0	 0.995	 69.15	 0	 288	 1.0; % COW
	35	 0.0	 0.0	 26.0	 -26.0	 0.995	 48.71	 0	 52	 12.57; % PEL
	43	 39.28225	 0.0	 160.0	 -160.0	 0.995	 100.0	 1	 78	 0.5645; % NG
	45	 0.0	 0.0	 67.75	 -67.75	 0.995	 203.25	 0	 19	 50.54; % NG
	46	 80.379	 0.0	 160.0	 -160.0	 0.995	 100.0	 1	 155	 5.758; % PEL
	47	 25.31775	 0.0	 160.0	 -160.0	 0.995	 100.0	 1	 43	 7.6355; % NG
	52	 154.4175	 0.0	 160.0	 -160.0	 0.995	 100.0	 1	 295	 13.835; % NG
	55	 56.6685	 0.0	 160.0	 -160.0	 0.995	 100.0	 1	 96	 17.337; % NG
	59	 116.45825	 0.0	 116.0	 -116.0	 0.995	 100.0	 1	 231	 1.9165; % NG
	65	 43.34825	 25.116	 92.232	 -42.0	 0.995	 27.8	 1	 83	 3.6965; % NG
	65	 0.0	 0.0	 49.0	 -49.0	 0.995	 27.8	 0	 97	 2.375; % NG
	71	 67.758	 0.0	 160.0	 -160.0	 0.995	 100.0	 1	 128	 7.516; % NG
	80	 0.0	 0.0	 35.0	 -35.0	 0.995	 27.8	 0	 70	 2.375; % NG
	80	 0.0	 0.0	 61.0	 -61.0	 0.995	 27.8	 0	 121	 1.0; % COW
	86	 91.8745	 0.0	 160.0	 -160.0	 0.995	 100.0	 1	 174	 9.749; % NG
	87	 0.0	 0.0	 104.0	 -104.0	 0.995	 100.0	 0	 208	 1.0; % NG
	90	 63.65925	 0.0	 160.0	 -160.0	 0.995	 100.0	 1	 121	 6.3185; % NG
	93	 87.74125	 0.0	 160.0	 -160.0	 0.995	 100.0	 1	 174	 1.4825; % NG
	98	 0.0	 0.0	 33.333	 -33.333	 0.995	 100.0	 0	 44	 25.134; % NG
	99	 0.0	 0.0	 85.0	 -85.0	 0.995	 163.45	 0	 169	 35.0; % NG
	100	 0.0	 0.0	 177.0	 -177.0	 0.995	 148.19	 0	 353	 35.0; % NG
	100	 0.0	 0.0	 39.0	 -39.0	 0.995	 100.0	 0	 77	 6.552; % NG
	105	 53.25	 0.0	 52.0	 -52.0	 0.995	 100.0	 1	 104	 2.5; % COW
	116	 0.0	 0.0	 187.0	 -187.0	 0.995	 147.7	 0	 374	 16.0; % COW
	117	 0.0	 0.0	 57.0	 -57.0	 0.995	 113.0	 0	 114	 16.0; % COW
	121	 0.0	 0.0	 55.0	 -55.0	 0.995	 135.0	 0	 109	 17.5; % NG
	131	 0.0	 0.0	 32.0	 -32.0	 0.995	 25.0	 0	 64	 5.0; % NG
	131	 0.0	 0.0	 23.0	 -23.0	 0.995	 25.0	 0	 45	 5.0; % PEL
	131	 0.0	 0.0	 11.438	 -11.438	 0.995	 30.0	 0	 0	 10.0; % PEL
	131	 0.0	 0.0	 107.0	 -107.0	 0.995	 25.0	 0	 214	 5.0; % NG
	133	 0.0	 0.0	 130.0	 -130.0	 0.995	 100.0	 0	 259	 1.198; % NG
	134	 159.25	 0.0	 158.0	 -158.0	 0.995	 50.0	 1	 316	 2.5; % NG
	151	 0.0	 0.0	 156.0	 -156.0	 0.995	 120.0	 0	 312	 35.0; % NG
	151	 86.58325	 0.0	 76.8	 -76.8	 0.995	 120.0	 1	 144	 29.1665; % NG
	151	 47.75	 0.0	 76.8	 -76.8	 0.995	 100.0	 1	 93	 2.5; % NG
	152	 241.75	 0.0	 222.0	 -222.0	 0.995	 144.0	 1	 444	 39.5; % COW
	152	 0.0	 0.0	 36.667	 -36.667	 0.995	 110.0	 0	 37	 79.0; % NG
	156	 0.0	 0.0	 33.333	 -33.333	 0.995	 100.0	 0	 1	 47.466; % NG
	159	 66.00925	 0.0	 160.0	 -160.0	 0.995	 100.0	 1	 132	 0.0185; % NG
	179	 85.0	 0.0	 83.0	 -83.0	 0.995	 100.0	 1	 165	 5.0; % NG
	190	 115.53325	 0.0	 160.0	 -160.0	 0.995	 100.0	 1	 222	 9.0665; % NG
	221	 0.0	 0.0	 123.333	 -123.333	 0.995	 370.0	 0	 16	 240.0; % NG
	221	 0.0	 0.0	 123.333	 -123.333	 0.995	 370.0	 0	 163	 120.0; % COW
	221	 0.0	 0.0	 157.837	 -33.0	 0.995	 449.45	 0	 66	 240.0; % NG
	222	 603.0	 0.0	 543.0	 -543.0	 0.995	 455.56	 1	 1086	 120.0; % COW
	222	 0.0	 0.0	 135.42	 -100.0	 0.995	 397.31	 0	 200	 120.0; % NG
	223	 398.719	 0.0	 386.0	 -386.0	 0.995	 616.84	 1	 772	 25.438; % NUC
	223	 1136.219	 0.0	 1124.0	 -1124.0	 0.995	 616.84	 1	 2247	 25.438; % COW
	223	 647.719	 0.0	 635.0	 -635.0	 0.995	 616.84	 1	 1270	 25.438; % COW
	224	 0.0	 0.0	 169.275	 -58.0	 0.995	 451.84	 0	 116	 240.0; % NG
	224	 618.0	 0.0	 558.0	 -558.0	 0.995	 416.51	 1	 1116	 120.0; % COW
	224	 757.0	 0.0	 697.0	 -697.0	 0.995	 416.51	 1	 1394	 120.0; % COW
	233	 172.775	 0.0	 244.8	 -244.8	 0.995	 100.0	 1	 324	 21.55; % NG
	236	 0.0	 0.0	 381.0	 -381.0	 0.995	 166.81	 0	 762	 45.8335; % COW
	236	 247.5	 0.0	 247.0	 -247.0	 0.995	 120.0	 1	 494	 1.0; % COW
	246	 446.0	 0.0	 386.0	 -386.0	 0.995	 477.9	 1	 772	 120.0; % COW
	250	 0.0	 0.0	 10.98	 -10.98	 0.995	 30.0	 0	 10	 1.0; % PEL
	256	 110.0	 0.0	 110.0	 -110.0	 0.995	 0.43	 1	 219	 1.0; % NG
	267	 90.1565	 0.0	 160.0	 -160.0	 0.995	 100.0	 1	 179	 1.313; % NG
	268	 385.36275	 0.0	 361.0	 -361.0	 0.995	 100.0	 1	 722	 48.7255; % NG
	272	 267.81425	 0.0	 264.0	 -264.0	 0.995	 100.0	 1	 528	 7.6285; % NG
	275	 80.86525	 0.0	 160.0	 -160.0	 0.995	 100.0	 1	 161	 0.7305; % PEL
	281	 23.9455	 0.0	 160.0	 -160.0	 0.995	 100.0	 1	 47	 0.891; % NG
	293	 0.0	 0.0	 76.667	 -76.667	 0.995	 230.0	 0	 23	 117.8; % NG
	296	 0.0	 0.0	 76.667	 -76.667	 0.995	 230.0	 0	 85	 58.9; % NG
	298	 33.49525	 0.0	 160.0	 -160.0	 0.995	 100.0	 1	 65	 1.9905; % NG
	303	 72.75	 0.0	 72.0	 -72.0	 0.995	 100.0	 1	 143	 2.5; % NG
	304	 0.0	 0.0	 33.333	 -33.333	 0.995	 100.0	 0	 38	 14.717; % NG
	305	 0.0	 0.0	 76.667	 -76.667	 0.995	 230.0	 0	 55	 117.8; % NG
	307	 128.161	 0.0	 160.0	 -160.0	 0.995	 100.0	 1	 253	 3.322; % NG
	309	 0.0	 0.0	 498.0	 -498.0	 0.995	 300.0	 0	 996	 99.404; % COW
	326	 0.0	 0.0	 76.667	 -76.667	 0.995	 230.0	 0	 76	 58.9; % NG
	335	 0.0	 0.0	 92.0	 -92.0	 0.995	 230.0	 0	 183	 58.9; % NG
	337	 31.47675	 0.0	 160.0	 -160.0	 0.995	 100.0	 1	 62	 0.9535; % COW
	342	 0.0	 0.0	 119.0	 -119.0	 0.995	 100.0	 0	 238	 1.0; % NG
	345	 57.93225	 0.0	 160.0	 -160.0	 0.995	 100.0	 1	 114	 1.8645; % PEL
	350	 107.0355	 0.0	 160.0	 -160.0	 0.995	 100.0	 1	 197	 17.071; % NG
	352	 0.0	 0.0	 452.0	 -452.0	 0.995	 907.0	 0	 904	 1.0; % COW
	353	 144.8855	 0.0	 160.0	 -160.0	 0.995	 100.0	 1	 277	 12.771; % NG
	357	 0.0	 0.0	 66.0	 -66.0	 0.995	 100.0	 0	 132	 61.4825; % NG
	361	 392.75875	 0.0	 361.0	 -361.0	 0.995	 100.0	 1	 721	 64.5175; % COW
	364	 0.0	 0.0	 55.0	 -55.0	 0.995	 100.0	 0	 110	 13.5145; % NG
	370	 0.0	 0.0	 92.945	 -62.0	 0.995	 216.55	 0	 108	 49.769; % NG
	370	 0.0	 0.0	 92.945	 -79.0	 0.995	 179.0	 0	 158	 49.769; % COW
	370	 0.0	 0.0	 92.945	 -75.0	 0.995	 179.0	 0	 96	 49.769; % NG
	371	 0.0	 0.0	 65.514	 -65.514	 0.995	 179.0	 0	 90	 1.0; % NG
	373	 110.0	 0.0	 142.8	 -142.8	 0.995	 58.99	 1	 207	 13.0; % NG
	374	 0.0	 0.0	 69.0	 -69.0	 0.995	 55.0	 0	 137	 13.0; % NG
	375	 0.0	 0.0	 107.604	 -107.604	 0.995	 0.36	 0	 72	 1.0; % COW
	376	 0.0	 0.0	 137.0	 -137.0	 0.995	 26.0	 0	 274	 1.0; % NG
	376	 0.0	 0.0	 33.333	 -33.333	 0.995	 100.0	 0	 26	 1.6465; % NG
	380	 0.0	 0.0	 33.333	 -33.333	 0.995	 100.0	 0	 11	 9.0175; % PEL
	384	 0.0	 0.0	 41.0	 -41.0	 0.995	 18.0	 0	 81	 1.0; % NG
	385	 160.5	 0.0	 160.0	 -160.0	 0.995	 22.0	 1	 320	 1.0; % NG
	390	 0.0	 0.0	 70.0	 -70.0	 0.995	 100.0	 0	 139	 6.539; % NG
	391	 228.5	 0.0	 228.0	 -228.0	 0.995	 0.24	 1	 456	 1.0; % NG
	395	 0.0	 0.0	 233.0	 -233.0	 0.995	 2.0	 0	 466	 1.0; % COW
	401	 0.0	 0.0	 94.794	 -94.794	 0.995	 1.0	 0	 10	 1.0; % NG
	402	 0.0	 0.0	 96.258	 -96.258	 0.995	 1.08	 0	 59	 1.0; % COW
	408	 0.0	 0.0	 107.97	 -107.97	 0.995	 0.12	 0	 12	 1.0; % NG
	414	 0.0	 0.0	 100.65	 -100.65	 0.995	 9.0	 0	 51	 1.0; % NG
	416	 56.0	 0.0	 101.016	 -101.016	 0.995	 0.24	 1	 111	 1.0; % NG
	422	 118.445	 0.0	 160.0	 -160.0	 0.995	 100.0	 1	 235	 1.89; % NG
	428	 60.0	 0.0	 101.016	 -101.016	 0.995	 7.22	 1	 119	 1.0; % NG
	428	 0.0	 0.0	 97.356	 -97.356	 0.995	 5.0	 0	 9	 1.0; % NG
	428	 0.0	 0.0	 107.97	 -107.97	 0.995	 5.0	 0	 54	 1.0; % NG
	436	 294.47875	 0.0	 292.0	 -292.0	 0.995	 100.0	 1	 583	 5.9575; % NG
	437	 193.5975	 0.0	 188.0	 -188.0	 0.995	 100.0	 1	 376	 11.195; % NG
	442	 0.0	 0.0	 33.333	 -33.333	 0.995	 100.0	 0	 15	 1.301; % NG
	443	 0.0	 0.0	 73.0	 -73.0	 0.995	 100.0	 0	 146	 7.1835; % NG
	444	 0.0	 0.0	 101.0	 -101.0	 0.995	 4.0	 0	 201	 1.5; % NG
	449	 42.07475	 0.0	 160.0	 -160.0	 0.995	 100.0	 1	 81	 3.1495; % NG
	469	 173.5	 0.0	 173.0	 -173.0	 0.995	 2.0	 1	 346	 1.0; % COW
	470	 0.0	 0.0	 29.0	 -29.0	 0.995	 35.0	 0	 58	 4.5; % NG
	470	 0.0	 0.0	 9.201	 -9.201	 0.995	 24.12	 0	 12	 4.5; % NG
	471	 0.0	 0.0	 11.667	 -11.667	 0.995	 35.0	 0	 16	 4.5; % NG
	471	 0.0	 0.0	 121.0	 -121.0	 0.995	 30.0	 0	 241	 4.5; % NG
	471	 0.0	 0.0	 82.0	 -82.0	 0.995	 28.0	 0	 163	 4.5; % NG
	474	 76.0325	 0.0	 160.0	 -160.0	 0.995	 100.0	 1	 147	 5.065; % PEL
	480	 74.61825	 0.0	 160.0	 -160.0	 0.995	 100.0	 1	 142	 7.2365; % PEL
	481	 77.205	 0.0	 160.0	 -160.0	 0.995	 100.0	 1	 149	 5.41; % PEL
	482	 178.14025	 0.0	 172.0	 -172.0	 0.995	 100.0	 1	 344	 12.2805; % NG
	483	 254.222	 0.0	 242.0	 -242.0	 0.995	 100.0	 1	 483	 25.444; % NG
	487	 127.1065	 0.0	 160.0	 -160.0	 0.995	 100.0	 1	 237	 17.213; % COW
	490	 91.88725	 0.0	 160.0	 -160.0	 0.995	 100.0	 1	 174	 9.7745; % NG
	494	 219.0485	 0.0	 217.0	 -217.0	 0.995	 100.0	 1	 433	 5.097; % NG
	499	 142.07575	 0.0	 160.0	 -160.0	 0.995	 100.0	 1	 275	 9.1515; % NG
	525	 0.0	 0.0	 297.0	 -297.0	 0.995	 100.0	 0	 594	 94.4585; % NG
	549	 86.8295	 0.0	 160.0	 -160.0	 0.995	 100.0	 1	 170	 3.659; % NG
	559	 0.0	 0.0	 31.015	 -31.015	 0.995	 93.044	 0	 54	 15.5; % NG
	564	 0.0	 0.0	 47.69	 -11.618	 0.995	 141.505	 0	 5	 36.178; % NG
	565	 0.0	 0.0	 557.0	 -557.0	 0.995	 135.577	 0	 1113	 19.2; % COW
	566	 0.0	 0.0	 47.692	 -16.0	 0.995	 120.747	 0	 31	 13.21; % NG
	567	 0.0	 0.0	 47.692	 -18.0	 0.995	 153.119	 0	 36	 6.56; % NG
	568	 0.0	 0.0	 413.0	 -413.0	 0.995	 120.216	 0	 826	 26.0385; % COW
	569	 206.94	 0.0	 201.0	 -201.0	 0.995	 110.999	 1	 402	 11.88; % PEL
	570	 0.0	 0.0	 44.179	 -44.179	 0.995	 132.538	 0	 54	 20.49; % NG
	571	 269.83925	 0.0	 260.0	 -260.0	 0.995	 125.632	 1	 519	 20.6785; % NG
	572	 0.0	 0.0	 149.0	 -149.0	 0.995	 97.012	 0	 297	 19.91; % NG
	573	 0.0	 0.0	 32.0	 -32.0	 0.995	 12.76	 0	 63	 1.0; % PEL
	576	 0.0	 0.0	 205.0	 -205.0	 0.995	 100.0	 0	 409	 35.3845; % NG
	578	 224.75	 0.0	 312.0	 -312.0	 0.995	 253.76	 1	 382	 67.5; % NG
	579	 0.0	 0.0	 68.333	 -68.333	 0.995	 205.0	 0	 126	 67.5; % NG
	579	 0.0	 0.0	 84.912	 -41.0	 0.995	 232.0	 0	 81	 50.0; % NG
	579	 175.0	 0.0	 183.0	 -183.0	 0.995	 222.0	 1	 349	 1.0; % NG
	580	 0.0	 0.0	 91.616	 -64.0	 0.995	 268.92	 0	 127	 45.0; % NG
	581	 0.0	 0.0	 92.0	 -92.0	 0.995	 232.0	 0	 183	 50.0; % NG
	581	 0.0	 0.0	 91.5	 -15.0	 0.995	 268.92	 0	 22	 90.0; % NG
	587	 676.223	 0.0	 658.0	 -658.0	 0.995	 100.0	 1	 1316	 36.446; % NUC
	591	 0.0	 0.0	 86.0	 -86.0	 0.995	 100.0	 0	 172	 29.9745; % NG
	596	 214.5	 0.0	 192.0	 -192.0	 0.995	 222.0	 1	 384	 45.0; % NG
	599	 0.0	 0.0	 33.0	 -33.0	 0.995	 1.0	 0	 66	 1.0; % NG
	602	 0.0	 0.0	 16.0	 -16.0	 0.995	 20.0	 0	 31	 2.5; % COW
	611	 0.0	 0.0	 51.0	 -51.0	 0.995	 26.0	 0	 101	 1.0; % NG
	619	 0.0	 0.0	 416.0	 -416.0	 0.995	 1.0	 0	 831	 1.0; % COW
	620	 154.0	 0.0	 154.0	 -154.0	 0.995	 2.0	 1	 307	 1.0; % NG
	623	 0.0	 0.0	 85.0	 -85.0	 0.995	 100.0	 0	 170	 2.901; % COW
	625	 29.5	 0.0	 29.0	 -29.0	 0.995	 50.0	 1	 58	 1.0; % NG
	630	 280.5	 0.0	 280.0	 -280.0	 0.995	 108.13	 1	 560	 1.0; % NG
	633	 285.73775	 0.0	 283.0	 -283.0	 0.995	 100.0	 1	 566	 5.4755; % NG
	634	 64.36075	 0.0	 160.0	 -160.0	 0.995	 100.0	 1	 121	 7.7215; % NG
	639	 0.0	 0.0	 33.333	 -33.333	 0.995	 100.0	 0	 7	 70.248; % NG
	640	 0.0	 0.0	 130.0	 -130.0	 0.995	 100.0	 0	 259	 103.394; % COW
	645	 141.12075	 0.0	 180.0	 -180.0	 0.995	 216.55	 1	 233	 49.2415; % NG
	645	 0.0	 0.0	 92.855	 -62.0	 0.995	 179.0	 0	 91	 49.2415; % NG
	645	 162.62075	 0.0	 180.0	 -180.0	 0.995	 179.0	 1	 276	 49.2415; % NG
	646	 30.0	 0.0	 159.6	 -159.6	 0.995	 179.0	 1	 59	 1.0; % NG
	648	 56.0	 0.0	 183.0	 -183.0	 0.995	 100.0	 1	 111	 1.0; % COW
	649	 0.0	 0.0	 77.0	 -77.0	 0.995	 58.99	 0	 154	 13.0; % NG
	650	 0.0	 0.0	 18.333	 -18.333	 0.995	 55.0	 0	 17	 13.0; % NG
	652	 25.0	 0.0	 98.82	 -98.82	 0.995	 0.36	 1	 49	 1.0; % COW
	652	 63.0	 0.0	 183.0	 -183.0	 0.995	 100.0	 1	 125	 1.0; % NG
	659	 28.5	 0.0	 28.0	 -28.0	 0.995	 18.0	 1	 56	 1.0; % NG
	660	 0.0	 0.0	 8.052	 -8.052	 0.995	 22.0	 0	 14	 1.0; % PEL
	667	 29.0	 0.0	 108.702	 -108.702	 0.995	 0.24	 1	 57	 1.0; % NG
	667	 50.5	 0.0	 183.0	 -183.0	 0.995	 100.0	 1	 100	 1.0; % NG
	674	 56.5	 0.0	 100.284	 -100.284	 0.995	 2.0	 1	 112	 1.0; % NG
	675	 99.0	 0.0	 99.0	 -99.0	 0.995	 15.0	 1	 197	 1.0; % PEL
	679	 0.0	 0.0	 93.33	 -93.33	 0.995	 1.0	 0	 100	 1.0; % NG
	684	 72.0	 0.0	 107.97	 -107.97	 0.995	 0.12	 1	 143	 1.0; % NG
	684	 0.0	 0.0	 131.0	 -131.0	 0.995	 100.0	 0	 261	 9.72; % NG
	688	 73.0	 0.0	 98.088	 -98.088	 0.995	 9.0	 1	 145	 1.0; % NG
	690	 64.5	 0.0	 106.506	 -106.506	 0.995	 0.24	 1	 128	 1.0; % COW
	690	 23.0	 0.0	 183.0	 -183.0	 0.995	 100.0	 1	 45	 1.0; % COW
	693	 45.5	 0.0	 183.0	 -183.0	 0.995	 100.0	 1	 90	 1.0; % COW
	696	 0.0	 0.0	 54.0	 -54.0	 0.995	 100.0	 0	 107	 6.561; % NG
	697	 0.0	 0.0	 260.0	 -260.0	 0.995	 100.0	 0	 520	 2.2085; % NG
	698	 0.0	 0.0	 101.0	 -101.0	 0.995	 148.19	 0	 202	 35.0; % COW
	702	 0.0	 0.0	 50.325	 -44.0	 0.995	 147.7	 0	 88	 16.0; % NG
	703	 0.0	 0.0	 101.0	 -101.0	 0.995	 113.0	 0	 202	 16.0; % NG
	706	 0.0	 0.0	 170.0	 -170.0	 0.995	 135.0	 0	 340	 17.5; % COW
	719	 0.0	 0.0	 54.903	 -12.0	 0.995	 144.0	 0	 24	 79.0; % NG
	719	 0.0	 0.0	 132.0	 -132.0	 0.995	 110.0	 0	 264	 39.5; % NG
...
];

%% generator cost data
%	2	startup	shutdown	n	c(n-1)	...	c0
mpc.gencost = [
	2	 0.0	 0.0	 3	   0.301600	  13.020000	 1978.000000; % NG
	2	 0.0	 0.0	 3	   0.000000	   2.538000	 213.500000; % COW
	2	 0.0	 0.0	 3	   0.012920	  15.500000	 202.500000; % COW
	2	 0.0	 0.0	 3	   0.000000	  26.430000	 758.400000; % NG
	2	 0.0	 0.0	 3	   0.060780	  43.020000	 1670.000000; % COW
	2	 0.0	 0.0	 3	   0.000000	  23.650000	 672.000000; % PEL
	2	 0.0	 0.0	 3	   0.010810	  15.410000	 213.700000; % NG
	2	 0.0	 0.0	 3	   0.000000	   0.670800	 144.400000; % COW
	2	 0.0	 0.0	 3	   0.000000	  77.380000	 522.800000; % PEL
	2	 0.0	 0.0	 3	   0.000000	   2.142000	 126.400000; % NG
	2	 0.0	 0.0	 3	   0.044350	  39.840000	 3035.000000; % NG
	2	 0.0	 0.0	 3	   0.000000	  21.090000	 695.500000; % PEL
	2	 0.0	 0.0	 3	   0.000000	  17.430000	 985.600000; % NG
	2	 0.0	 0.0	 3	   0.094060	  59.560000	 1157.000000; % NG
	2	 0.0	 0.0	 3	   0.064860	  49.210000	 1771.000000; % NG
	2	 0.0	 0.0	 3	   0.007780	  18.420000	 358.900000; % NG
	2	 0.0	 0.0	 3	   0.013290	  16.940000	 642.600000; % NG
	2	 0.0	 0.0	 3	   1.128000	   0.000000	 274.400000; % NG
	2	 0.0	 0.0	 3	   0.219200	   0.000000	 1553.000000; % NG
	2	 0.0	 0.0	 3	   0.000000	  44.010000	 171.200000; % NG
	2	 0.0	 0.0	 3	   0.655200	  24.430000	  96.250000; % COW
	2	 0.0	 0.0	 3	   0.130400	   1.185000	 1232.000000; % NG
	2	 0.0	 0.0	 3	   0.009039	  19.880000	 234.200000; % NG
	2	 0.0	 0.0	 3	   0.000000	   4.068000	 686.100000; % NG
	2	 0.0	 0.0	 3	   0.009773	  20.660000	 261.700000; % NG
	2	 0.0	 0.0	 3	   0.000000	  13.090000	 4280.000000; % NG
	2	 0.0	 0.0	 3	   0.100500	  52.860000	 3001.000000; % NG
	2	 0.0	 0.0	 3	   0.100300	  52.900000	 2957.000000; % NG
	2	 0.0	 0.0	 3	   0.000000	  70.000000	 247.000000; % NG
	2	 0.0	 0.0	 3	   0.045400	  44.380000	 336.400000; % COW
	2	 0.0	 0.0	 3	   0.052510	  44.890000	 1787.000000; % COW
	2	 0.0	 0.0	 3	   0.378400	   0.000000	 2845.000000; % COW
	2	 0.0	 0.0	 3	   0.062420	  43.510000	 1696.000000; % NG
	2	 0.0	 0.0	 3	   0.000000	  67.830000	 196.900000; % NG
	2	 0.0	 0.0	 3	   0.000000	  62.450000	 191.500000; % PEL
	2	 0.0	 0.0	 3	   2.449000	  76.410000	 -630.700000; % PEL
	2	 0.0	 0.0	 3	   4.717000	  82.490000	 -908.000000; % NG
	2	 0.0	 0.0	 3	   0.007858	  18.530000	 214.600000; % NG
	2	 0.0	 0.0	 3	   0.000000	  19.470000	 519.800000; % NG
	2	 0.0	 0.0	 3	   0.202500	  68.710000	 1384.000000; % NG
	2	 0.0	 0.0	 3	   0.143100	  63.430000	 1774.000000; % NG
	2	 0.0	 0.0	 3	   0.045400	  44.380000	 318.300000; % NG
	2	 0.0	 0.0	 3	   0.106600	  52.170000	 3319.000000; % COW
	2	 0.0	 0.0	 3	   0.827400	  14.920000	 1335.000000; % NG
	2	 0.0	 0.0	 3	   0.000000	  66.010000	 356.800000; % NG
	2	 0.0	 0.0	 3	   0.000000	   0.671100	  48.220000; % NG
	2	 0.0	 0.0	 3	   0.064860	  36.760000	 652.000000; % NG
	2	 0.0	 0.0	 3	   0.000000	   5.512000	 1480.000000; % NG
	2	 0.0	 0.0	 3	   0.000000	   1.538000	 16190.000000; % NG
	2	 0.0	 0.0	 3	   0.000000	   2.841000	 15420.000000; % COW
	2	 0.0	 0.0	 3	   0.000000	   3.003000	 18870.000000; % NG
	2	 0.0	 0.0	 3	   0.000000	   1.273000	 11880.000000; % COW
	2	 0.0	 0.0	 3	   0.000000	   4.166000	 18630.000000; % NG
	2	 0.0	 0.0	 3	   0.000451	   0.320700	 3547.000000; % NUC
	2	 0.0	 0.0	 3	   0.000000	   0.939100	 4614.000000; % COW
	2	 0.0	 0.0	 3	   0.000000	   0.923500	 4067.000000; % COW
	2	 0.0	 0.0	 3	   0.000000	   1.071000	 17750.000000; % NG
	2	 0.0	 0.0	 3	   0.000000	   4.116000	 19350.000000; % COW
	2	 0.0	 0.0	 3	   0.000000	   3.637000	 17110.000000; % COW
	2	 0.0	 0.0	 3	   0.042560	  27.130000	 2989.000000; % NG
	2	 0.0	 0.0	 3	   0.000000	  60.530000	 3696.000000; % COW
	2	 0.0	 0.0	 3	   0.000000	   0.479300	  99.610000; % COW
	2	 0.0	 0.0	 3	   0.000000	   1.205000	 15480.000000; % COW
	2	 0.0	 0.0	 3	   0.000000	   5.534000	 141.300000; % PEL
	2	 0.0	 0.0	 3	   0.012550	  16.600000	 187.200000; % NG
	2	 0.0	 0.0	 3	   0.000000	   1.686000	 212.000000; % NG
	2	 0.0	 0.0	 3	   0.000000	   1.820000	 6060.000000; % NG
	2	 0.0	 0.0	 3	   0.000000	   3.544000	 205.700000; % NG
	2	 0.0	 0.0	 3	   0.000000	  49.980000	 -45.110000; % PEL
	2	 0.0	 0.0	 3	   0.008309	  19.070000	 156.400000; % NG
	2	 0.0	 0.0	 3	   0.212800	  48.210000	 3398.000000; % NG
	2	 0.0	 0.0	 3	   0.217000	  47.000000	 3495.000000; % NG
	2	 0.0	 0.0	 3	   0.000000	   9.811000	 151.800000; % NG
	2	 0.0	 0.0	 3	   0.045400	  44.380000	 300.400000; % NG
	2	 0.0	 0.0	 3	   0.000000	  81.400000	 -1502.000000; % NG
	2	 0.0	 0.0	 3	   0.275000	  15.670000	 5832.000000; % NG
	2	 0.0	 0.0	 3	   0.470000	   8.416000	 390.000000; % NG
	2	 0.0	 0.0	 3	   0.003248	   0.000000	 13790.000000; % COW
	2	 0.0	 0.0	 3	   0.282400	  13.500000	 5978.000000; % NG
	2	 0.0	 0.0	 3	   0.224400	  44.850000	 -383.500000; % NG
	2	 0.0	 0.0	 3	   0.009176	  20.040000	 176.900000; % COW
	2	 0.0	 0.0	 3	   0.008260	  19.010000	 204.600000; % NG
	2	 0.0	 0.0	 3	   0.000000	  10.060000	 244.800000; % PEL
	2	 0.0	 0.0	 3	   0.066680	  49.840000	 1716.000000; % NG
	2	 0.0	 0.0	 3	   0.010590	  21.520000	 199.400000; % COW
	2	 0.0	 0.0	 3	   0.068040	  51.510000	 1294.000000; % NG
	2	 0.0	 0.0	 3	   1.579000	   0.000000	 -11380.000000; % NG
	2	 0.0	 0.0	 3	   0.000000	   2.164000	 10100.000000; % COW
	2	 0.0	 0.0	 3	   0.000000	  89.500000	 336.700000; % NG
	2	 0.0	 0.0	 3	   0.000000	  19.070000	 8130.000000; % NG
	2	 0.0	 0.0	 3	   0.031190	  20.170000	 7383.000000; % COW
	2	 0.0	 0.0	 3	   0.000000	  35.660000	 7315.000000; % NG
	2	 0.0	 0.0	 3	   0.018090	  25.590000	 190.900000; % NG
	2	 0.0	 0.0	 3	   0.000000	  17.010000	 1268.000000; % NG
	2	 0.0	 0.0	 3	   0.262500	  25.700000	 2854.000000; % NG
	2	 0.0	 0.0	 3	   0.000000	   1.130000	 156.200000; % COW
	2	 0.0	 0.0	 3	   0.783800	  12.280000	 118.500000; % NG
	2	 0.0	 0.0	 3	   0.010120	  21.020000	 299.100000; % NG
	2	 0.0	 0.0	 3	   0.000000	  23.900000	 257.600000; % PEL
	2	 0.0	 0.0	 3	   0.000000	  94.830000	 -22.460000; % NG
	2	 0.0	 0.0	 3	   0.000000	  51.010000	 106.400000; % NG
	2	 0.0	 0.0	 3	   0.000000	  77.620000	 1098.000000; % NG
	2	 0.0	 0.0	 3	   0.000000	   1.760000	 141.400000; % NG
	2	 0.0	 0.0	 3	   0.082780	   0.111500	 211.400000; % COW
	2	 0.0	 0.0	 3	   0.008602	  17.630000	 189.200000; % NG
	2	 0.0	 0.0	 3	   0.000000	  21.770000	 220.500000; % COW
	2	 0.0	 0.0	 3	   0.000000	   1.676000	 146.700000; % NG
	2	 0.0	 0.0	 3	   0.010700	  15.330000	 195.900000; % NG
	2	 0.0	 0.0	 3	   0.008081	  18.800000	 143.000000; % NG
	2	 0.0	 0.0	 3	   0.046680	  45.110000	 227.700000; % NG
	2	 0.0	 0.0	 3	   0.008081	  18.800000	 193.000000; % NG
	2	 0.0	 0.0	 3	   0.008703	  19.510000	 209.600000; % NG
	2	 0.0	 0.0	 3	   0.000000	   2.138000	 139.000000; % NG
	2	 0.0	 0.0	 3	   0.055240	  48.180000	 652.500000; % NG
	2	 0.0	 0.0	 3	   0.027110	  33.370000	 1561.000000; % NG
	2	 0.0	 0.0	 3	   0.011920	  16.160000	 266.900000; % NG
	2	 0.0	 0.0	 3	   0.000000	  51.480000	  17.440000; % NG
	2	 0.0	 0.0	 3	   0.010810	  15.390000	 277.500000; % NG
	2	 0.0	 0.0	 3	   0.000000	   7.310000	 247.000000; % NG
	2	 0.0	 0.0	 3	   0.008946	  17.980000	 164.500000; % COW
	2	 0.0	 0.0	 3	   0.000000	  29.280000	 479.900000; % NG
	2	 0.0	 0.0	 3	   0.000000	  64.500000	 322.700000; % NG
	2	 0.0	 0.0	 3	   0.000000	  43.280000	 471.900000; % NG
	2	 0.0	 0.0	 3	   0.000000	  53.610000	 390.800000; % NG
	2	 0.0	 0.0	 3	   0.964900	   0.000000	 628.100000; % NG
	2	 0.0	 0.0	 3	   0.067680	  18.690000	 974.500000; % PEL
	2	 0.0	 0.0	 3	   0.000000	  18.700000	 1479.000000; % PEL
	2	 0.0	 0.0	 3	   0.000000	  15.780000	 691.400000; % PEL
	2	 0.0	 0.0	 3	   0.113700	  65.700000	 871.000000; % NG
	2	 0.0	 0.0	 3	   0.000000	   0.240100	 3335.000000; % NG
	2	 0.0	 0.0	 3	   0.065690	  49.500000	 1760.000000; % COW
	2	 0.0	 0.0	 3	   0.000000	   3.714000	 633.600000; % NG
	2	 0.0	 0.0	 3	   0.000000	   8.259000	 333.100000; % NG
	2	 0.0	 0.0	 3	   0.000000	  24.700000	 1933.000000; % NG
	2	 0.0	 0.0	 3	   0.000000	 398.800000	 -54750.000000; % NG
	2	 0.0	 0.0	 3	   0.000000	   4.773000	 296.400000; % NG
	2	 0.0	 0.0	 3	   0.000000	   4.942000	 1034.000000; % NG
	2	 0.0	 0.0	 3	   0.065320	  49.140000	 2431.000000; % NG
	2	 0.0	 0.0	 3	   0.090320	  37.850000	 2199.000000; % COW
	2	 0.0	 0.0	 3	   0.054370	  46.250000	 1454.000000; % NG
	2	 0.0	 0.0	 3	   0.043430	  42.710000	 801.800000; % NG
	2	 0.0	 0.0	 3	   0.091760	  54.420000	 2277.000000; % COW
	2	 0.0	 0.0	 3	   0.051900	  45.500000	 1326.000000; % PEL
	2	 0.0	 0.0	 3	   0.000000	  20.110000	 3008.000000; % NG
	2	 0.0	 0.0	 3	   0.096010	  57.540000	 1716.000000; % NG
	2	 0.0	 0.0	 3	   0.092650	  56.910000	 1655.000000; % NG
	2	 0.0	 0.0	 3	   2.068000	  16.720000	 111.400000; % PEL
	2	 0.0	 0.0	 3	   0.000000	  41.810000	 2031.000000; % NG
	2	 0.0	 0.0	 3	   0.000000	  74.050000	 4697.000000; % NG
	2	 0.0	 0.0	 3	   0.000000	  85.460000	 3168.000000; % NG
	2	 0.0	 0.0	 3	   0.042120	  22.280000	 7101.000000; % NG
	2	 0.0	 0.0	 3	   0.000000	   0.421400	 169.000000; % NG
	2	 0.0	 0.0	 3	   0.022260	  27.330000	 6553.000000; % NG
	2	 0.0	 0.0	 3	   0.038340	  33.540000	 6494.000000; % NG
	2	 0.0	 0.0	 3	   0.022350	  27.380000	 6584.000000; % NG
	2	 0.0	 0.0	 3	   0.000000	   0.462500	 4641.000000; % NUC
	2	 0.0	 0.0	 3	   0.000000	  74.010000	 386.300000; % NG
	2	 0.0	 0.0	 3	   0.032390	  32.020000	 6079.000000; % NG
	2	 0.0	 0.0	 3	   0.007627	  18.260000	 176.100000; % NG
	2	 0.0	 0.0	 3	   0.000000	  87.540000	 -61.490000; % COW
	2	 0.0	 0.0	 3	   0.000000	   8.465000	  98.000000; % NG
	2	 0.0	 0.0	 3	   0.000000	  12.800000	 233.800000; % COW
	2	 0.0	 0.0	 3	   0.012170	  16.340000	 175.800000; % NG
	2	 0.0	 0.0	 3	   0.000000	  23.630000	 522.800000; % COW
	2	 0.0	 0.0	 3	   0.000000	   5.747000	 187.900000; % NG
	2	 0.0	 0.0	 3	   0.010550	  15.220000	 178.100000; % NG
	2	 0.0	 0.0	 3	   0.037090	  39.680000	 881.400000; % NG
	2	 0.0	 0.0	 3	   0.011190	  15.370000	 1305.000000; % NG
	2	 0.0	 0.0	 3	   0.000000	  20.550000	 4294.000000; % NG
	2	 0.0	 0.0	 3	   0.968700	   0.000000	 -20420.000000; % COW
	2	 0.0	 0.0	 3	   0.023570	  27.610000	 7140.000000; % NG
	2	 0.0	 0.0	 3	   0.023570	  27.610000	 7152.000000; % NG
	2	 0.0	 0.0	 3	   0.023570	  27.610000	 7110.000000; % NG
	2	 0.0	 0.0	 3	   0.019300	  29.080000	 183.900000; % NG
	2	 0.0	 0.0	 3	   0.002384	   0.738600	 443.000000; % COW
	2	 0.0	 0.0	 3	   0.000000	  18.910000	 1247.000000; % NG
	2	 0.0	 0.0	 3	   0.000000	  21.130000	 1235.000000; % NG
	2	 0.0	 0.0	 3	   0.000000	  21.200000	 209.600000; % COW
	2	 0.0	 0.0	 3	   0.000000	   1.149000	 139.700000; % NG
	2	 0.0	 0.0	 3	   0.000000	  67.430000	  73.820000; % NG
	2	 0.0	 0.0	 3	   0.000000	  59.450000	 120.000000; % PEL
	2	 0.0	 0.0	 3	   0.000000	   2.748000	 209.600000; % NG
	2	 0.0	 0.0	 3	   0.000000	   1.640000	 166.100000; % NG
	2	 0.0	 0.0	 3	   0.008200	  18.940000	 204.700000; % NG
	2	 0.0	 0.0	 3	   0.000000	  52.380000	 101.900000; % PEL
	2	 0.0	 0.0	 3	   0.009474	  20.360000	 183.800000; % NG
	2	 0.0	 0.0	 3	   0.000000	   1.218000	 168.800000; % NG
	2	 0.0	 0.0	 3	   0.000000	  10.910000	 732.800000; % NG
	2	 0.0	 0.0	 3	   0.008573	  19.370000	 179.900000; % NG
	2	 0.0	 0.0	 3	   0.000000	   1.943000	 143.500000; % COW
	2	 0.0	 0.0	 3	   0.001765	   0.368600	 137.100000; % COW
	2	 0.0	 0.0	 3	   0.000000	   0.434900	 111.100000; % COW
	2	 0.0	 0.0	 3	   0.000000	  16.310000	 691.000000; % NG
	2	 0.0	 0.0	 3	   0.013850	  17.370000	 390.300000; % NG
	2	 0.0	 0.0	 3	   0.102800	  52.350000	 645.200000; % COW
	2	 0.0	 0.0	 3	   0.052510	  44.890000	 1793.000000; % NG
	2	 0.0	 0.0	 3	   0.132800	  46.240000	 1523.000000; % NG
	2	 0.0	 0.0	 3	   0.066600	  49.750000	 1802.000000; % COW
	2	 0.0	 0.0	 3	   0.106500	  52.180000	 3283.000000; % NG
	2	 0.0	 0.0	 3	   0.708200	  63.260000	 -1342.000000; % NG
...
];

%% branch data
%	fbus	tbus	r	x	b	rateA	rateB	rateC	ratio	angle	status	angmin	angmax
mpc.branch = [
	1	 60	 0.02461	 0.07336	 0.00802	 128.0	 128.0	 128.0	 0.0	 0.0	 1	 -30.0	 30.0;
	1	 93	 0.03244	 0.09513	 0.01073	 128.0	 128.0	 128.0	 0.0	 0.0	 1	 -30.0	 30.0;
	2	 74	 0.00068	 0.00368	 0.00043	 125.0	 125.0	 125.0	 0.0	 0.0	 1	 -30.0	 30.0;
	2	 549	 0.0001	 0.01	 0.0	 119.81	 143.78	 143.8	 0.0	 0.0	 1	 -30.0	 30.0;
	4	 43	 0.0037	 0.01909	 0.00247	 190.0	 190.0	 190.0	 0.0	 0.0	 1	 -30.0	 30.0;
	4	 93	 0.00349	 0.01802	 0.00231	 190.0	 190.0	 190.0	 0.0	 0.0	 1	 -30.0	 30.0;
	7	 60	 0.01649	 0.04916	 0.00537	 128.0	 128.0	 128.0	 0.0	 0.0	 1	 -30.0	 30.0;
	7	 73	 0.00374	 0.01116	 0.00122	 128.0	 128.0	 128.0	 0.0	 0.0	 1	 -30.0	 30.0;
	10	 27	 0.0125	 0.02353	 0.00262	 74.0	 74.0	 74.0	 0.0	 0.0	 1	 -30.0	 30.0;
	11	 92	 0.00236	 0.00669	 0.00079	 62.0	 62.0	 62.0	 0.0	 0.0	 1	 -30.0	 30.0;
	16	 93	 0.00506	 0.01482	 0.00168	 333.45	 384.75	 384.8	 0.0	 0.0	 1	 -30.0	 30.0;
	17	 81	 0.00892	 0.05374	 0.01281	 249.0	 249.0	 249.0	 0.0	 0.0	 1	 -30.0	 30.0;
	17	 93	 0.0001	 0.001	 0.0	 260.0	 312.0	 312.0	 0.0	 0.0	 1	 -30.0	 30.0;
	18	 66	 2e-05	 0.001	 0.0	 333.0	 350.0	 350.0	 0.0	 0.0	 1	 -30.0	 30.0;
	19	 31	 0.00071	 0.00582	 0.01221	 510.0	 510.0	 510.0	 0.0	 0.0	 1	 -30.0	 30.0;
	19	 35	 7e-05	 0.001	 0.00171	 564.0	 612.0	 612.0	 0.0	 0.0	 1	 -30.0	 30.0;
	19	 69	 0.0001	 0.001	 0.0	 260.0	 312.0	 312.0	 0.0	 0.0	 1	 -30.0	 30.0;
	21	 57	 0.04598	 0.09139	 0.00983	 86.0	 86.0	 86.0	 0.0	 0.0	 1	 -30.0	 30.0;
	21	 91	 0.02947	 0.10073	 0.01266	 86.0	 86.0	 86.0	 0.0	 0.0	 1	 -30.0	 30.0;
	22	 67	 0.01108	 0.04402	 0.00618	 236.27	 283.52	 283.52	 0.0	 0.0	 1	 -30.0	 30.0;
	22	 73	 0.00993	 0.03804	 0.00535	 225.46	 270.55	 270.6	 0.0	 0.0	 1	 -30.0	 30.0;
	23	 44	 0.00266	 0.01058	 0.0015	 276.93	 332.32	 332.32	 0.0	 0.0	 1	 -30.0	 30.0;
	23	 137	 0.0001	 0.01	 0.0	 152.75	 183.3	 183.3	 1.0	 0.0	 1	 -30.0	 30.0;
	23	 254	 0.0001	 0.01	 0.0	 300.0	 400.0	 400.0	 1.0	 0.0	 1	 -30.0	 30.0;
	24	 94	 0.00489	 0.02021	 0.00261	 141.0	 153.0	 153.0	 0.0	 0.0	 1	 -30.0	 30.0;
	27	 72	 0.01151	 0.02166	 0.00241	 74.0	 74.0	 74.0	 0.0	 0.0	 1	 -30.0	 30.0;
	30	 73	 0.01736	 0.07168	 0.00928	 165.0	 165.0	 165.0	 0.0	 0.0	 1	 -30.0	 30.0;
	30	 94	 0.01303	 0.05385	 0.00695	 141.0	 153.0	 153.0	 0.0	 0.0	 1	 -30.0	 30.0;
	31	 38	 0.00032	 0.00211	 0.00427	 406.0	 432.0	 432.0	 0.0	 0.0	 1	 -30.0	 30.0;
	31	 66	 0.00151	 0.01243	 0.02626	 497.0	 497.0	 497.0	 0.0	 0.0	 1	 -30.0	 30.0;
	31	 66	 0.00151	 0.01236	 0.02612	 510.0	 510.0	 510.0	 0.0	 0.0	 1	 -30.0	 30.0;
	32	 50	 0.0092	 0.02296	 0.00287	 260.0	 312.0	 312.0	 0.0	 0.0	 1	 -30.0	 30.0;
	32	 72	 0.02022	 0.04363	 0.00517	 74.0	 74.0	 74.0	 0.0	 0.0	 1	 -30.0	 30.0;
	33	 36	 0.0001	 0.001	 0.0	 260.0	 312.0	 312.0	 0.0	 0.0	 1	 -30.0	 30.0;
	36	 38	 0.00062	 0.00521	 0.01419	 633.0	 633.0	 633.0	 0.0	 0.0	 1	 -30.0	 30.0;
	36	 45	 0.0001	 0.001	 0.0	 260.0	 312.0	 312.0	 0.0	 0.0	 1	 -30.0	 30.0;
	36	 483	 0.0001	 0.01	 0.0	 257.59	 297.22	 297.22	 0.0	 0.0	 1	 -30.0	 30.0;
	37	 55	 0.00249	 0.02091	 0.043	 510.0	 510.0	 510.0	 0.0	 0.0	 1	 -30.0	 30.0;
	37	 79	 0.00037	 0.00306	 0.00647	 510.0	 510.0	 510.0	 0.0	 0.0	 1	 -30.0	 30.0;
	40	 47	 0.00855	 0.03356	 0.00426	 160.0	 160.0	 160.0	 0.0	 0.0	 1	 -30.0	 30.0;
	40	 93	 0.01448	 0.0565	 0.00724	 160.0	 160.0	 160.0	 0.0	 0.0	 1	 -30.0	 30.0;
	41	 46	 0.00572	 0.03592	 0.12701	 617.0	 617.0	 617.0	 0.0	 0.0	 1	 -30.0	 30.0;
	41	 87	 0.0001	 0.001	 0.0	 260.0	 312.0	 312.0	 0.0	 0.0	 1	 -30.0	 30.0;
	44	 67	 0.01683	 0.06688	 0.0094	 264.9	 317.88	 317.9	 0.0	 0.0	 1	 -30.0	 30.0;
	46	 90	 0.00242	 0.01482	 0.05476	 658.0	 658.0	 658.0	 0.0	 0.0	 1	 -30.0	 30.0;
	50	 74	 0.00113	 0.00465	 0.00061	 74.0	 74.0	 74.0	 0.0	 0.0	 1	 -30.0	 30.0;
	52	 87	 0.0001	 0.001	 0.0	 260.0	 312.0	 312.0	 0.0	 0.0	 1	 -30.0	 30.0;
	53	 62	 0.00689	 0.01291	 0.00144	 74.0	 74.0	 74.0	 0.0	 0.0	 1	 -30.0	 30.0;
	53	 82	 0.00037	 0.001	 0.0	 74.0	 74.0	 74.0	 0.0	 0.0	 1	 -30.0	 30.0;
	57	 85	 0.0002	 0.001	 0.0	 86.0	 86.0	 86.0	 0.0	 0.0	 1	 -30.0	 30.0;
	58	 76	 0.02397	 0.04498	 0.00499	 74.0	 74.0	 74.0	 0.0	 0.0	 1	 -30.0	 30.0;
	58	 91	 0.0293	 0.08307	 0.00997	 128.0	 128.0	 128.0	 0.0	 0.0	 1	 -30.0	 30.0;
	58	 92	 0.03256	 0.0924	 0.01108	 59.0	 59.0	 59.0	 0.0	 0.0	 1	 -30.0	 30.0;
	58	 499	 0.0001	 0.01	 0.0	 139.18	 167.01	 167.01	 0.0	 0.0	 1	 -30.0	 30.0;
	62	 76	 0.00523	 0.00981	 0.00108	 74.0	 74.0	 74.0	 0.0	 0.0	 1	 -30.0	 30.0;
	63	 90	 0.00075	 0.00528	 0.02325	 331.0	 331.0	 331.0	 0.0	 0.0	 1	 -30.0	 30.0;
	68	 83	 0.01058	 0.02193	 0.00216	 86.0	 86.0	 86.0	 0.0	 0.0	 1	 -30.0	 30.0;
	68	 84	 0.0059	 0.01222	 0.00121	 86.0	 86.0	 86.0	 0.0	 0.0	 1	 -30.0	 30.0;
	69	 86	 0.00519	 0.04108	 0.09283	 510.0	 510.0	 510.0	 0.0	 0.0	 1	 -30.0	 30.0;
	71	 93	 0.03778	 0.11512	 0.0141	 128.0	 128.0	 128.0	 0.0	 0.0	 1	 -30.0	 30.0;
	79	 87	 0.00493	 0.0412	 0.0844	 510.0	 510.0	 510.0	 0.0	 0.0	 1	 -30.0	 30.0;
	81	 494	 0.0001	 0.01	 0.0	 235.85	 272.14	 272.14	 0.0	 0.0	 1	 -30.0	 30.0;
	83	 91	 0.0039	 0.01106	 0.00133	 86.0	 86.0	 86.0	 0.0	 0.0	 1	 -30.0	 30.0;
	95	 96	 2e-05	 0.00021	 0.0	 876.0	 876.0	 876.0	 0.0	 0.0	 1	 -30.0	 30.0;
	95	 99	 0.00171	 0.00961	 0.01424	 250.0	 250.0	 250.0	 0.0	 0.0	 1	 -30.0	 30.0;
	96	 748	 0.0001	 0.01	 0.0	 121.81	 146.17	 146.2	 0.0	 0.0	 1	 -30.0	 30.0;
	97	 98	 2e-05	 0.00021	 0.0	 876.0	 876.0	 876.0	 0.0	 0.0	 1	 -30.0	 30.0;
	97	 100	 0.00194	 0.01415	 0.0223	 341.0	 341.0	 341.0	 0.0	 0.0	 1	 -30.0	 30.0;
	97	 697	 0.0001	 0.01	 0.0	 83.7	 98.6	 98.6	 0.0	 0.0	 1	 -30.0	 30.0;
	98	 749	 0.0001	 0.01	 0.0	 122.55	 141.4	 141.4	 0.0	 0.0	 1	 -30.0	 30.0;
	99	 100	 2e-05	 0.00021	 0.0	 876.0	 876.0	 876.0	 0.0	 0.0	 1	 -30.0	 30.0;
	99	 102	 0.00537	 0.04039	 0.06005	 319.0	 319.0	 319.0	 0.0	 0.0	 1	 -30.0	 30.0;
	100	 698	 0.0001	 0.01	 0.0	 187.88	 216.79	 216.8	 0.0	 0.0	 1	 -30.0	 30.0;
	101	 102	 0.00066	 0.00496	 0.00758	 319.0	 319.0	 319.0	 0.0	 0.0	 1	 -30.0	 30.0;
	101	 696	 0.0001	 0.01	 0.0	 125.8	 150.96	 151.0	 0.0	 0.0	 1	 -30.0	 30.0;
	102	 747	 0.0001	 0.01	 0.0	 258.73	 298.54	 298.54	 0.0	 0.0	 1	 -30.0	 30.0;
	103	 152	 0.01248	 0.04595	 0.00524	 75.0	 75.0	 75.0	 0.0	 0.0	 1	 -30.0	 30.0;
	104	 105	 8e-05	 0.00083	 0.0	 634.11	 731.66	 731.7	 0.0	 0.0	 1	 -30.0	 30.0;
	104	 170	 0.00364	 0.01149	 0.00123	 644.69	 743.87	 743.9	 0.0	 0.0	 1	 -30.0	 30.0;
	105	 180	 0.00653	 0.02058	 0.00222	 628.23	 724.88	 724.9	 0.0	 0.0	 1	 -30.0	 30.0;
	106	 107	 8e-05	 0.00083	 0.0	 438.0	 438.0	 438.0	 0.0	 0.0	 1	 -30.0	 30.0;
	106	 140	 0.00488	 0.01231	 0.00189	 74.62	 97.01	 97.01	 0.0	 0.0	 1	 -30.0	 30.0;
	107	 203	 0.00074	 0.00223	 0.0003	 62.0	 62.0	 62.0	 0.0	 0.0	 1	 -30.0	 30.0;
	108	 170	 0.00157	 0.00463	 0.00057	 653.46	 753.99	 754.0	 0.0	 0.0	 1	 -30.0	 30.0;
	108	 684	 0.0001	 0.01	 0.0	 667.77	 770.51	 770.51	 0.0	 0.0	 1	 -30.0	 30.0;
	109	 144	 0.00041	 0.00124	 0.00013	 75.0	 75.0	 75.0	 0.0	 0.0	 1	 -30.0	 30.0;
	110	 111	 8e-05	 0.00083	 0.0	 438.0	 438.0	 438.0	 0.0	 0.0	 1	 -30.0	 30.0;
	110	 140	 0.00455	 0.01289	 0.00174	 62.0	 62.0	 62.0	 0.0	 0.0	 1	 -30.0	 30.0;
	111	 207	 0.00603	 0.01711	 0.00231	 62.0	 62.0	 62.0	 0.0	 0.0	 1	 -30.0	 30.0;
	112	 113	 8e-05	 0.00083	 0.0	 438.0	 438.0	 438.0	 0.0	 0.0	 1	 -30.0	 30.0;
	112	 114	 0.0005	 0.00149	 0.0096	 98.0	 98.0	 98.0	 0.0	 0.0	 1	 -30.0	 30.0;
	114	 131	 8e-05	 0.00066	 7e-05	 132.0	 152.31	 152.31	 0.0	 0.0	 1	 -30.0	 30.0;
	114	 190	 0.00207	 0.01413	 0.00162	 154.01	 177.7	 177.7	 0.0	 0.0	 1	 -30.0	 30.0;
	115	 126	 0.00339	 0.01116	 0.00113	 75.0	 75.0	 75.0	 0.0	 0.0	 1	 -30.0	 30.0;
	115	 150	 0.00132	 0.00231	 0.00023	 47.0	 47.0	 47.0	 0.0	 0.0	 1	 -30.0	 30.0;
	115	 175	 0.00636	 0.0205	 0.00213	 75.0	 75.0	 75.0	 0.0	 0.0	 1	 -30.0	 30.0;
	115	 178	 0.00264	 0.00818	 0.00094	 75.0	 75.0	 75.0	 0.0	 0.0	 1	 -30.0	 30.0;
	115	 192	 0.0081	 0.02298	 0.00239	 63.0	 63.0	 63.0	 0.0	 0.0	 1	 -30.0	 30.0;
	116	 117	 8e-05	 0.00083	 0.0	 438.0	 438.0	 438.0	 0.0	 0.0	 1	 -30.0	 30.0;
	116	 132	 0.00174	 0.00496	 0.00065	 57.0	 57.0	 57.0	 0.0	 0.0	 1	 -30.0	 30.0;
	116	 153	 0.00455	 0.01405	 0.0016	 75.0	 75.0	 75.0	 0.0	 0.0	 1	 -30.0	 30.0;
	116	 186	 0.00504	 0.01562	 0.00173	 75.0	 75.0	 75.0	 0.0	 0.0	 1	 -30.0	 30.0;
	116	 195	 0.00711	 0.02322	 0.00234	 302.57	 349.12	 349.12	 0.0	 0.0	 1	 -30.0	 30.0;
	117	 145	 0.00496	 0.01628	 0.00164	 123.52	 148.23	 148.23	 0.0	 0.0	 1	 -30.0	 30.0;
	117	 168	 0.00496	 0.01496	 0.00179	 172.26	 198.76	 198.8	 0.0	 0.0	 1	 -30.0	 30.0;
	117	 187	 0.00504	 0.01562	 0.00173	 75.0	 75.0	 75.0	 0.0	 0.0	 1	 -30.0	 30.0;
	118	 119	 0.00124	 0.00421	 0.00059	 70.0	 70.0	 70.0	 0.0	 0.0	 1	 -30.0	 30.0;
	119	 122	 0.00413	 0.01587	 0.00183	 91.74	 105.86	 105.9	 0.0	 0.0	 1	 -30.0	 30.0;
	119	 152	 0.00488	 0.01678	 0.00193	 100.5	 115.96	 116.0	 0.0	 0.0	 1	 -30.0	 30.0;
	120	 144	 0.00355	 0.01149	 0.00116	 75.0	 75.0	 75.0	 0.0	 0.0	 1	 -30.0	 30.0;
	120	 199	 0.00182	 0.00587	 0.00587	 114.0	 114.0	 114.0	 0.0	 0.0	 1	 -30.0	 30.0;
	121	 122	 8e-05	 0.00083	 0.0	 438.0	 438.0	 438.0	 0.0	 0.0	 1	 -30.0	 30.0;
	121	 124	 0.00066	 0.00207	 0.00021	 75.0	 75.0	 75.0	 0.0	 0.0	 1	 -30.0	 30.0;
	121	 136	 0.00066	 0.0024	 0.00031	 80.0	 80.0	 80.0	 0.0	 0.0	 1	 -30.0	 30.0;
	121	 144	 0.00314	 0.01355	 0.00135	 80.0	 80.0	 80.0	 0.0	 0.0	 1	 -30.0	 30.0;
	121	 162	 0.00223	 0.00826	 0.00099	 70.0	 70.0	 70.0	 0.0	 0.0	 1	 -30.0	 30.0;
	122	 123	 0.00066	 0.00215	 0.00022	 75.0	 75.0	 75.0	 0.0	 0.0	 1	 -30.0	 30.0;
	122	 144	 0.00314	 0.01355	 0.00135	 80.0	 80.0	 80.0	 0.0	 0.0	 1	 -30.0	 30.0;
	122	 197	 0.00091	 0.00273	 0.00033	 75.0	 75.0	 75.0	 0.0	 0.0	 1	 -30.0	 30.0;
	125	 144	 0.0014	 0.00455	 0.00046	 75.0	 75.0	 75.0	 0.0	 0.0	 1	 -30.0	 30.0;
	127	 128	 8e-05	 0.00083	 0.0	 438.0	 438.0	 438.0	 0.0	 0.0	 1	 -30.0	 30.0;
	127	 140	 0.00405	 0.01331	 0.00135	 107.11	 123.59	 123.6	 0.0	 0.0	 1	 -30.0	 30.0;
	128	 182	 0.01025	 0.02926	 0.0039	 107.37	 123.89	 123.9	 0.0	 0.0	 1	 -30.0	 30.0;
	129	 130	 0.00231	 0.00273	 0.00058	 39.0	 39.0	 39.0	 0.0	 0.0	 1	 -30.0	 30.0;
	130	 151	 0.00579	 0.01785	 0.00204	 198.93	 238.72	 238.72	 0.0	 0.0	 1	 -30.0	 30.0;
	130	 174	 0.0043	 0.01347	 0.00147	 188.62	 226.34	 226.34	 0.0	 0.0	 1	 -30.0	 30.0;
	133	 167	 0.01198	 0.03702	 0.00418	 156.12	 180.13	 180.13	 0.0	 0.0	 1	 -30.0	 30.0;
	133	 757	 0.0001	 0.01	 0.0	 151.01	 174.25	 174.3	 0.0	 0.0	 1	 -30.0	 30.0;
	135	 144	 0.00372	 0.01207	 0.00122	 75.0	 75.0	 75.0	 0.0	 0.0	 1	 -30.0	 30.0;
	137	 174	 0.00686	 0.02215	 0.00232	 174.85	 209.82	 209.82	 0.0	 0.0	 1	 -30.0	 30.0;
	138	 139	 0.00033	 0.00041	 9e-05	 39.0	 39.0	 39.0	 0.0	 0.0	 1	 -30.0	 30.0;
	139	 151	 0.0076	 0.02355	 0.00263	 604.64	 697.67	 697.7	 0.0	 0.0	 1	 -30.0	 30.0;
	139	 179	 0.00273	 0.00876	 0.0009	 607.79	 701.3	 701.3	 0.0	 0.0	 1	 -30.0	 30.0;
	140	 190	 0.01694	 0.05562	 0.0056	 95.16	 109.8	 109.8	 0.0	 0.0	 1	 -30.0	 30.0;
	141	 151	 0.03413	 0.08545	 0.00909	 144.77	 167.04	 167.04	 0.0	 0.0	 1	 -30.0	 30.0;
	141	 158	 0.00992	 0.01661	 0.00395	 109.6	 126.46	 126.5	 0.0	 0.0	 1	 -30.0	 30.0;
	141	 164	 0.02496	 0.03802	 0.00491	 39.0	 39.0	 39.0	 0.0	 0.0	 1	 -30.0	 30.0;
	141	 205	 0.0062	 0.01562	 0.00277	 62.0	 62.0	 62.0	 0.0	 0.0	 1	 -30.0	 30.0;
	142	 143	 8e-05	 0.00083	 0.0	 438.0	 438.0	 438.0	 0.0	 0.0	 1	 -30.0	 30.0;
	142	 211	 0.00463	 0.01446	 0.00163	 75.0	 75.0	 75.0	 0.0	 0.0	 1	 -30.0	 30.0;
	143	 740	 0.0001	 0.01	 0.0	 83.7	 98.6	 98.6	 0.0	 0.0	 1	 -30.0	 30.0;
	144	 192	 0.0014	 0.00471	 0.00048	 75.0	 75.0	 75.0	 0.0	 0.0	 1	 -30.0	 30.0;
	144	 193	 0.00331	 0.01066	 0.0011	 75.0	 75.0	 75.0	 0.0	 0.0	 1	 -30.0	 30.0;
	145	 275	 0.0001	 0.01	 0.0	 124.05	 148.86	 148.9	 0.0	 0.0	 1	 -30.0	 30.0;
	146	 147	 8e-05	 0.00083	 0.0	 438.0	 438.0	 438.0	 0.0	 0.0	 1	 -30.0	 30.0;
	146	 155	 0.0105	 0.02983	 0.00402	 62.0	 62.0	 62.0	 0.0	 0.0	 1	 -30.0	 30.0;
	147	 208	 0.01909	 0.05413	 0.00729	 62.0	 62.0	 62.0	 0.0	 0.0	 1	 -30.0	 30.0;
	148	 149	 0.00438	 0.0086	 0.00086	 47.0	 47.0	 47.0	 0.0	 0.0	 1	 -30.0	 30.0;
	149	 176	 0.00628	 0.02	 0.00213	 75.0	 75.0	 75.0	 0.0	 0.0	 1	 -30.0	 30.0;
	149	 272	 0.0001	 0.01	 0.0	 83.7	 98.6	 98.6	 0.0	 0.0	 1	 -30.0	 30.0;
	151	 189	 0.00579	 0.01446	 0.00162	 113.45	 130.9	 130.9	 0.0	 0.0	 1	 -30.0	 30.0;
	152	 161	 0.00769	 0.02711	 0.00317	 85.94	 111.72	 111.72	 0.0	 0.0	 1	 -30.0	 30.0;
	152	 186	 0.01025	 0.03198	 0.00354	 62.0	 62.0	 62.0	 0.0	 0.0	 1	 -30.0	 30.0;
	152	 187	 0.01025	 0.03198	 0.00354	 62.0	 62.0	 62.0	 0.0	 0.0	 1	 -30.0	 30.0;
	153	 154	 8e-05	 0.00083	 0.0	 438.0	 438.0	 438.0	 0.0	 0.0	 1	 -30.0	 30.0;
	154	 211	 0.00091	 0.00256	 0.00033	 75.0	 75.0	 75.0	 0.0	 0.0	 1	 -30.0	 30.0;
	155	 156	 8e-05	 0.00083	 0.0	 438.0	 438.0	 438.0	 0.0	 0.0	 1	 -30.0	 30.0;
	155	 165	 0.00628	 0.01959	 0.00217	 62.0	 62.0	 62.0	 0.0	 0.0	 1	 -30.0	 30.0;
	155	 201	 0.00083	 0.00248	 0.00027	 62.0	 62.0	 62.0	 0.0	 0.0	 1	 -30.0	 30.0;
	156	 166	 0.0062	 0.01942	 0.00215	 62.0	 62.0	 62.0	 0.0	 0.0	 1	 -30.0	 30.0;
	156	 172	 0.01587	 0.05182	 0.00527	 62.0	 62.0	 62.0	 0.0	 0.0	 1	 -30.0	 30.0;
	156	 204	 0.00124	 0.00355	 0.00045	 62.0	 62.0	 62.0	 0.0	 0.0	 1	 -30.0	 30.0;
	156	 206	 0.00198	 0.00529	 0.00071	 50.0	 50.0	 50.0	 0.0	 0.0	 1	 -30.0	 30.0;
	156	 656	 0.0001	 0.01	 0.0	 106.7	 123.11	 123.11	 0.0	 0.0	 1	 -30.0	 30.0;
	157	 158	 0.00223	 0.00562	 0.0006	 50.0	 50.0	 50.0	 0.0	 0.0	 1	 -30.0	 30.0;
	158	 190	 0.01471	 0.03025	 0.00563	 110.38	 127.36	 127.4	 0.0	 0.0	 1	 -30.0	 30.0;
	159	 160	 8e-05	 0.00083	 0.0	 438.0	 438.0	 438.0	 0.0	 0.0	 1	 -30.0	 30.0;
	159	 386	 0.0001	 0.01	 0.0	 151.46	 174.76	 174.8	 0.0	 0.0	 1	 -30.0	 30.0;
	160	 171	 0.01488	 0.02661	 0.00302	 50.93	 61.12	 61.12	 0.0	 0.0	 1	 -30.0	 30.0;
	161	 162	 8e-05	 0.00083	 0.0	 438.0	 438.0	 438.0	 0.0	 0.0	 1	 -30.0	 30.0;
	163	 164	 8e-05	 0.00083	 0.0	 438.0	 438.0	 438.0	 0.0	 0.0	 1	 -30.0	 30.0;
	163	 171	 0.00215	 0.00603	 0.00063	 39.0	 39.0	 39.0	 0.0	 0.0	 1	 -30.0	 30.0;
	167	 168	 8e-05	 0.00083	 0.0	 438.0	 438.0	 438.0	 0.0	 0.0	 1	 -30.0	 30.0;
	169	 170	 0.00231	 0.00694	 0.00072	 63.0	 63.0	 63.0	 0.0	 0.0	 1	 -30.0	 30.0;
	171	 172	 8e-05	 0.00083	 0.0	 438.0	 438.0	 438.0	 0.0	 0.0	 1	 -30.0	 30.0;
	173	 174	 0.00603	 0.01744	 0.0023	 105.0	 105.0	 105.0	 0.0	 0.0	 1	 -30.0	 30.0;
	175	 176	 8e-05	 0.00083	 0.0	 438.0	 438.0	 438.0	 0.0	 0.0	 1	 -30.0	 30.0;
	177	 178	 0.00124	 0.00364	 0.00047	 57.0	 57.0	 57.0	 0.0	 0.0	 1	 -30.0	 30.0;
	178	 199	 0.0038	 0.01215	 0.00125	 75.0	 75.0	 75.0	 0.0	 0.0	 1	 -30.0	 30.0;
	179	 180	 8e-05	 0.00083	 0.0	 615.32	 709.99	 710.0	 0.0	 0.0	 1	 -30.0	 30.0;
	181	 182	 8e-05	 0.00083	 0.0	 438.0	 438.0	 438.0	 0.0	 0.0	 1	 -30.0	 30.0;
	181	 183	 0.01248	 0.03545	 0.00474	 112.57	 129.89	 129.9	 0.0	 0.0	 1	 -30.0	 30.0;
	183	 188	 0.00769	 0.01934	 0.00211	 112.18	 129.43	 129.43	 0.0	 0.0	 1	 -30.0	 30.0;
	184	 186	 0.00521	 0.00884	 0.00089	 47.0	 47.0	 47.0	 0.0	 0.0	 1	 -30.0	 30.0;
	185	 187	 0.00521	 0.00884	 0.00089	 47.0	 47.0	 47.0	 0.0	 0.0	 1	 -30.0	 30.0;
	188	 189	 8e-05	 0.00083	 0.0	 438.0	 438.0	 438.0	 0.0	 0.0	 1	 -30.0	 30.0;
	190	 196	 0.00372	 0.01231	 0.00124	 62.0	 62.0	 62.0	 0.0	 0.0	 1	 -30.0	 30.0;
	190	 444	 0.0001	 0.01	 0.0	 83.7	 98.6	 98.6	 0.0	 0.0	 1	 -30.0	 30.0;
	191	 192	 0.0005	 0.0014	 0.00017	 75.0	 75.0	 75.0	 0.0	 0.0	 1	 -30.0	 30.0;
	194	 195	 0.00074	 0.00231	 0.00026	 75.0	 75.0	 75.0	 0.0	 0.0	 1	 -30.0	 30.0;
	195	 474	 0.0001	 0.01	 0.0	 318.91	 367.97	 368.0	 0.0	 0.0	 1	 -30.0	 30.0;
	198	 199	 8e-05	 0.0002	 2e-05	 75.0	 75.0	 75.0	 0.0	 0.0	 1	 -30.0	 30.0;
...